seed-1001
     RDKit          3D

 72 76  0  0  0  0  0  0  0  0999 V2000
   41.8680   61.7660   58.4580 C   0  0  0  0  0  0  0  0  0  0  0  0
   40.3730   61.8020   58.1970 C   0  0  0  0  0  0  0  0  0  0  0  0
   39.8850   63.1560   58.0290 N   0  0  0  0  0  0  0  0  0  0  0  0
   39.7020   63.6970   56.7670 C   0  0  0  0  0  0  0  0  0  0  0  0
   39.8900   63.0450   55.7500 O   0  0  0  0  0  0  0  0  0  0  0  0
   39.2950   65.0120   56.8640 N   0  0  0  0  0  0  0  0  0  0  0  0
   39.0070   65.8870   55.8280 C   0  0  0  0  0  0  0  0  0  0  0  0
   40.0570   67.1390   55.3970 S   0  0  0  0  0  0  0  0  0  0  0  0
   39.0970   67.6050   54.0530 C   0  0  0  0  0  0  0  0  0  0  0  0
   39.3870   68.6200   53.1210 C   0  0  0  0  0  0  0  0  0  0  0  0
   38.5020   68.8440   52.0640 C   0  0  0  0  0  0  0  0  0  0  0  0
   37.3570   68.0730   51.9320 C   0  0  0  0  0  0  0  0  0  0  0  0
   37.0720   67.0710   52.8650 C   0  0  0  0  0  0  0  0  0  0  0  0
   37.9380   66.8290   53.9650 C   0  0  0  0  0  0  0  0  0  0  0  0
   37.8550   65.8820   55.0600 C   0  0  0  0  0  0  0  0  0  0  0  0
   36.7570   64.9550   55.3360 C   0  0  0  0  0  0  0  0  0  0  0  0
   35.8960   65.2470   56.1660 O   0  0  0  0  0  0  0  0  0  0  0  0
   36.6840   63.7810   54.5810 N   0  0  0  0  0  0  0  0  0  0  0  0
   37.2850   63.6370   53.2550 C   0  0  0  0  0  0  0  0  0  0  0  0
   36.4040   62.8290   52.2900 C   0  0  0  0  0  0  0  0  0  0  0  0
   34.9150   63.1940   52.4700 C   0  0  0  0  0  0  0  0  0  0  0  0
   33.9920   62.5130   51.5190 N   0  0  0  0  0  0  0  0  0  0  0  0
   32.7730   63.3090   51.2890 C   0  0  0  0  0  0  0  0  0  0  0  0
   31.7050   62.4750   50.5800 C   0  0  0  0  0  0  0  0  0  0  0  0
   32.2690   61.3970   49.6560 C   0  0  0  0  0  0  0  0  0  0  0  0
   33.6570   61.7350   49.1040 C   0  0  1  0  0  0  0  0  0  0  0  0
   34.6270   62.2190   50.2120 C   0  0  0  0  0  0  0  0  0  0  0  0
   34.2090   60.5390   48.3170 C   0  0  0  0  0  0  0  0  0  0  0  0
   34.9780   61.1540   47.1570 C   0  0  0  0  0  0  0  0  0  0  0  0
   36.4560   61.4010   47.4670 C   0  0  0  0  0  0  0  0  0  0  0  0
   34.8510   60.3080   45.8900 C   0  0  0  0  0  0  0  0  0  0  0  0
   34.3330   62.4110   46.9260 O   0  0  0  0  0  0  0  0  0  0  0  0
   33.5840   62.7790   48.0060 C   0  0  0  0  0  0  0  0  0  0  0  0
   32.9680   63.8320   48.0590 O   0  0  0  0  0  0  0  0  0  0  0  0
   34.4880   62.9000   53.9360 C   0  0  0  0  0  0  0  0  0  0  0  0
   35.6610   62.8050   54.9070 C   0  0  0  0  0  0  0  0  0  0  0  0
   42.0508   61.7616   59.5427 H   0  0  0  0  0  0  0  0  0  0  0  0
   42.2966   60.8573   58.0102 H   0  0  0  0  0  0  0  0  0  0  0  0
   42.3399   62.6530   58.0102 H   0  0  0  0  0  0  0  0  0  0  0  0
   40.1582   61.2307   57.2819 H   0  0  0  0  0  0  0  0  0  0  0  0
   39.8648   61.3627   59.0680 H   0  0  0  0  0  0  0  0  0  0  0  0
   40.0540   63.8020   58.7850 H   0  0  0  0  0  0  0  0  0  0  0  0
   38.9930   65.3200   57.7820 H   0  0  0  0  0  0  0  0  0  0  0  0
   40.2979   69.2280   53.2240 H   0  0  0  0  0  0  0  0  0  0  0  0
   38.7146   69.6369   51.3318 H   0  0  0  0  0  0  0  0  0  0  0  0
   36.6707   68.2501   51.0908 H   0  0  0  0  0  0  0  0  0  0  0  0
   36.1642   66.4614   52.7455 H   0  0  0  0  0  0  0  0  0  0  0  0
   37.4450   64.6390   52.8303 H   0  0  0  0  0  0  0  0  0  0  0  0
   38.2322   63.0911   53.3767 H   0  0  0  0  0  0  0  0  0  0  0  0
   36.7066   63.0490   51.2556 H   0  0  0  0  0  0  0  0  0  0  0  0
   36.5331   61.7585   52.5076 H   0  0  0  0  0  0  0  0  0  0  0  0
   34.8293   64.2666   52.2416 H   0  0  0  0  0  0  0  0  0  0  0  0
   32.3787   63.6524   52.2568 H   0  0  0  0  0  0  0  0  0  0  0  0
   33.0286   64.1690   50.6525 H   0  0  0  0  0  0  0  0  0  0  0  0
   31.0849   61.9848   51.3450 H   0  0  0  0  0  0  0  0  0  0  0  0
   31.1298   63.1668   49.9472 H   0  0  0  0  0  0  0  0  0  0  0  0
   32.3379   60.4552   50.2202 H   0  0  0  0  0  0  0  0  0  0  0  0
   31.5878   61.3173   48.7959 H   0  0  0  0  0  0  0  0  0  0  0  0
   35.3832   61.4357   50.3690 H   0  0  0  0  0  0  0  0  0  0  0  0
   35.0492   63.1702   49.8556 H   0  0  0  0  0  0  0  0  0  0  0  0
   34.8781   59.9360   48.9484 H   0  0  0  0  0  0  0  0  0  0  0  0
   33.4100   59.8656   47.9731 H   0  0  0  0  0  0  0  0  0  0  0  0
   36.6029   61.4256   48.5569 H   0  0  0  0  0  0  0  0  0  0  0  0
   37.0618   60.5916   47.0335 H   0  0  0  0  0  0  0  0  0  0  0  0
   36.7657   62.3634   47.0335 H   0  0  0  0  0  0  0  0  0  0  0  0
   34.6929   59.2551   46.1665 H   0  0  0  0  0  0  0  0  0  0  0  0
   33.9961   60.6634   45.2959 H   0  0  0  0  0  0  0  0  0  0  0  0
   35.7725   60.3968   45.2959 H   0  0  0  0  0  0  0  0  0  0  0  0
   33.8223   63.7083   54.2730 H   0  0  0  0  0  0  0  0  0  0  0  0
   33.9893   61.9196   53.9360 H   0  0  0  0  0  0  0  0  0  0  0  0
   35.2985   62.9909   55.9288 H   0  0  0  0  0  0  0  0  0  0  0  0
   36.0988   61.7987   54.8315 H   0  0  0  0  0  0  0  0  0  0  0  0
  1  2  1  0
  2  3  1  0
  3  4  1  0
  4  5  2  0
  4  6  1  0
  6  7  1  0
  7  8  1  0
  8  9  1  0
  9 10  2  0
 10 11  1  0
 11 12  2  0
 12 13  1  0
 13 14  2  0
 14 15  1  0
 15 16  1  0
 16 17  2  0
 16 18  1  0
 18 19  1  0
 19 20  1  0
 20 21  1  0
 21 22  1  0
 22 23  1  0
 23 24  1  0
 24 25  1  0
 26 25  1  1
 26 27  1  0
 26 28  1  0
 28 29  1  0
 29 30  1  0
 29 31  1  0
 29 32  1  0
 32 33  1  0
 33 34  2  0
 21 35  1  0
 35 36  1  0
 15  7  2  0
 36 18  1  0
 14  9  1  0
 27 22  1  0
 33 26  1  0
  1 37  1  0
  1 38  1  0
  1 39  1  0
  2 40  1  0
  2 41  1  0
  3 42  1  0
  6 43  1  0
 10 44  1  0
 11 45  1  0
 12 46  1  0
 13 47  1  0
 19 48  1  0
 19 49  1  0
 20 50  1  0
 20 51  1  0
 21 52  1  0
 23 53  1  0
 23 54  1  0
 24 55  1  0
 24 56  1  0
 25 57  1  0
 25 58  1  0
 27 59  1  0
 27 60  1  0
 28 61  1  0
 28 62  1  0
 30 63  1  0
 30 64  1  0
 30 65  1  0
 31 66  1  0
 31 67  1  0
 31 68  1  0
 35 69  1  0
 35 70  1  0
 36 71  1  0
 36 72  1  0
M  END
>  <meeko>  (1) 
{"is_sidechain": [false], "free_energy": -10.316, "intermolecular_energy": -12.728, "internal_energy": -1.2}

$$$$
seed-1001
     RDKit          3D

 72 76  0  0  0  0  0  0  0  0999 V2000
   40.7100   61.4140   60.0690 C   0  0  0  0  0  0  0  0  0  0  0  0
   39.3980   61.4610   59.3090 C   0  0  0  0  0  0  0  0  0  0  0  0
   39.5350   62.1310   58.0320 N   0  0  0  0  0  0  0  0  0  0  0  0
   39.1560   63.4550   57.8750 C   0  0  0  0  0  0  0  0  0  0  0  0
   38.7440   64.1240   58.8120 O   0  0  0  0  0  0  0  0  0  0  0  0
   39.3200   63.8480   56.5630 N   0  0  0  0  0  0  0  0  0  0  0  0
   39.0550   65.0930   56.0130 C   0  0  0  0  0  0  0  0  0  0  0  0
   40.2130   66.3230   55.9840 S   0  0  0  0  0  0  0  0  0  0  0  0
   39.2040   67.3770   55.0810 C   0  0  0  0  0  0  0  0  0  0  0  0
   39.5360   68.6600   54.6040 C   0  0  0  0  0  0  0  0  0  0  0  0
   38.5960   69.3700   53.8540 C   0  0  0  0  0  0  0  0  0  0  0  0
   37.3550   68.8160   53.5790 C   0  0  0  0  0  0  0  0  0  0  0  0
   37.0290   67.5450   54.0620 C   0  0  0  0  0  0  0  0  0  0  0  0
   37.9520   66.8020   54.8450 C   0  0  0  0  0  0  0  0  0  0  0  0
   37.8470   65.4980   55.4700 C   0  0  0  0  0  0  0  0  0  0  0  0
   36.6690   64.6300   55.4960 C   0  0  0  0  0  0  0  0  0  0  0  0
   35.8740   64.6960   56.4330 O   0  0  0  0  0  0  0  0  0  0  0  0
   36.4450   63.7930   54.3990 N   0  0  0  0  0  0  0  0  0  0  0  0
   36.9800   64.0570   53.0620 C   0  0  0  0  0  0  0  0  0  0  0  0
   35.9850   63.7040   51.9470 C   0  0  0  0  0  0  0  0  0  0  0  0
   34.5490   64.1130   52.3410 C   0  0  0  0  0  0  0  0  0  0  0  0
   33.5270   63.8770   51.2840 N   0  0  0  0  0  0  0  0  0  0  0  0
   34.1530   63.4960   50.0050 C   0  0  0  0  0  0  0  0  0  0  0  0
   33.1410   63.5700   48.8610 C   0  0  0  0  0  0  0  0  0  0  0  0
   31.7010   63.2830   49.2840 C   0  0  0  0  0  0  0  0  0  0  0  0
   31.5990   62.3800   50.5180 C   0  0  1  0  0  0  0  0  0  0  0  0
   32.5370   62.8410   51.6610 C   0  0  0  0  0  0  0  0  0  0  0  0
   30.1340   62.2710   50.9610 C   0  0  0  0  0  0  0  0  0  0  0  0
   29.9780   60.8400   51.4540 C   0  0  0  0  0  0  0  0  0  0  0  0
   30.2560   60.6760   52.9500 C   0  0  0  0  0  0  0  0  0  0  0  0
   28.5950   60.2810   51.1220 C   0  0  0  0  0  0  0  0  0  0  0  0
   30.9540   60.0990   50.7150 O   0  0  0  0  0  0  0  0  0  0  0  0
   31.8930   60.9310   50.1760 C   0  0  0  0  0  0  0  0  0  0  0  0
   32.8470   60.5270   49.5310 O   0  0  0  0  0  0  0  0  0  0  0  0
   34.1480   63.3760   53.6510 C   0  0  0  0  0  0  0  0  0  0  0  0
   35.3390   62.8560   54.4500 C   0  0  0  0  0  0  0  0  0  0  0  0
   40.5079   61.4212   61.1502 H   0  0  0  0  0  0  0  0  0  0  0  0
   41.2546   60.4958   59.8039 H   0  0  0  0  0  0  0  0  0  0  0  0
   41.3189   62.2909   59.8039 H   0  0  0  0  0  0  0  0  0  0  0  0
   39.0513   60.4317   59.1348 H   0  0  0  0  0  0  0  0  0  0  0  0
   38.6746   62.0271   59.9141 H   0  0  0  0  0  0  0  0  0  0  0  0
   39.5300   61.5520   57.2060 H   0  0  0  0  0  0  0  0  0  0  0  0
   39.8660   63.2270   55.9750 H   0  0  0  0  0  0  0  0  0  0  0  0
   40.5223   69.0968   54.8193 H   0  0  0  0  0  0  0  0  0  0  0  0
   38.8415   70.3746   53.4792 H   0  0  0  0  0  0  0  0  0  0  0  0
   36.6245   69.3783   52.9788 H   0  0  0  0  0  0  0  0  0  0  0  0
   36.0433   67.1143   53.8322 H   0  0  0  0  0  0  0  0  0  0  0  0
   37.2285   65.1259   52.9868 H   0  0  0  0  0  0  0  0  0  0  0  0
   37.8689   63.4231   52.9279 H   0  0  0  0  0  0  0  0  0  0  0  0
   36.2713   64.2351   51.0272 H   0  0  0  0  0  0  0  0  0  0  0  0
   36.0091   62.6162   51.7855 H   0  0  0  0  0  0  0  0  0  0  0  0
   34.5662   65.2027   52.4903 H   0  0  0  0  0  0  0  0  0  0  0  0
   34.9869   64.1814   49.7935 H   0  0  0  0  0  0  0  0  0  0  0  0
   34.5182   62.4616   50.0859 H   0  0  0  0  0  0  0  0  0  0  0  0
   33.1797   64.5814   48.4301 H   0  0  0  0  0  0  0  0  0  0  0  0
   33.4212   62.7899   48.1379 H   0  0  0  0  0  0  0  0  0  0  0  0
   31.2064   64.2393   49.5096 H   0  0  0  0  0  0  0  0  0  0  0  0
   31.2171   62.7517   48.4512 H   0  0  0  0  0  0  0  0  0  0  0  0
   31.9129   63.2453   52.4715 H   0  0  0  0  0  0  0  0  0  0  0  0
   33.1186   61.9550   51.9554 H   0  0  0  0  0  0  0  0  0  0  0  0
   29.9207   62.9844   51.7706 H   0  0  0  0  0  0  0  0  0  0  0  0
   29.4363   62.5051   50.1435 H   0  0  0  0  0  0  0  0  0  0  0  0
   29.4495   61.1518   53.5271 H   0  0  0  0  0  0  0  0  0  0  0  0
   30.3028   59.6056   53.1991 H   0  0  0  0  0  0  0  0  0  0  0  0
   31.2155   61.1527   53.1991 H   0  0  0  0  0  0  0  0  0  0  0  0
   28.0543   60.0624   52.0547 H   0  0  0  0  0  0  0  0  0  0  0  0
   28.0310   61.0218   50.5362 H   0  0  0  0  0  0  0  0  0  0  0  0
   28.7042   59.3564   50.5362 H   0  0  0  0  0  0  0  0  0  0  0  0
   33.5834   64.0759   54.2846 H   0  0  0  0  0  0  0  0  0  0  0  0
   33.5501   62.5005   53.3577 H   0  0  0  0  0  0  0  0  0  0  0  0
   35.0354   62.7138   55.4977 H   0  0  0  0  0  0  0  0  0  0  0  0
   35.6664   61.9015   54.0120 H   0  0  0  0  0  0  0  0  0  0  0  0
  1  2  1  0
  2  3  1  0
  3  4  1  0
  4  5  2  0
  4  6  1  0
  6  7  1  0
  7  8  1  0
  8  9  1  0
  9 10  2  0
 10 11  1  0
 11 12  2  0
 12 13  1  0
 13 14  2  0
 14 15  1  0
 15 16  1  0
 16 17  2  0
 16 18  1  0
 18 19  1  0
 19 20  1  0
 20 21  1  0
 21 22  1  0
 22 23  1  0
 23 24  1  0
 24 25  1  0
 26 25  1  6
 26 27  1  0
 26 28  1  0
 28 29  1  0
 29 30  1  0
 29 31  1  0
 29 32  1  0
 32 33  1  0
 33 34  2  0
 21 35  1  0
 35 36  1  0
 15  7  2  0
 36 18  1  0
 14  9  1  0
 27 22  1  0
 33 26  1  0
  1 37  1  0
  1 38  1  0
  1 39  1  0
  2 40  1  0
  2 41  1  0
  3 42  1  0
  6 43  1  0
 10 44  1  0
 11 45  1  0
 12 46  1  0
 13 47  1  0
 19 48  1  0
 19 49  1  0
 20 50  1  0
 20 51  1  0
 21 52  1  0
 23 53  1  0
 23 54  1  0
 24 55  1  0
 24 56  1  0
 25 57  1  0
 25 58  1  0
 27 59  1  0
 27 60  1  0
 28 61  1  0
 28 62  1  0
 30 63  1  0
 30 64  1  0
 30 65  1  0
 31 66  1  0
 31 67  1  0
 31 68  1  0
 35 69  1  0
 35 70  1  0
 36 71  1  0
 36 72  1  0
M  END
>  <meeko>  (2) 
{"is_sidechain": [false], "free_energy": -9.98, "intermolecular_energy": -12.172, "internal_energy": -1.341}

$$$$
seed-1001
     RDKit          3D

 72 76  0  0  0  0  0  0  0  0999 V2000
   42.2720   70.7120   58.6770 C   0  0  0  0  0  0  0  0  0  0  0  0
   42.8620   69.3740   59.0830 C   0  0  0  0  0  0  0  0  0  0  0  0
   41.8370   68.3780   59.3170 N   0  0  0  0  0  0  0  0  0  0  0  0
   42.1600   67.1160   59.7890 C   0  0  0  0  0  0  0  0  0  0  0  0
   43.3080   66.8100   60.0790 O   0  0  0  0  0  0  0  0  0  0  0  0
   41.0300   66.3300   59.8690 N   0  0  0  0  0  0  0  0  0  0  0  0
   40.9430   65.0140   60.2970 C   0  0  0  0  0  0  0  0  0  0  0  0
   41.2060   64.5780   61.9080 S   0  0  0  0  0  0  0  0  0  0  0  0
   40.7950   62.9360   61.6270 C   0  0  0  0  0  0  0  0  0  0  0  0
   40.7320   61.9050   62.5850 C   0  0  0  0  0  0  0  0  0  0  0  0
   40.3470   60.6260   62.1820 C   0  0  0  0  0  0  0  0  0  0  0  0
   40.0260   60.3750   60.8570 C   0  0  0  0  0  0  0  0  0  0  0  0
   40.0970   61.4000   59.9090 C   0  0  0  0  0  0  0  0  0  0  0  0
   40.5050   62.7090   60.2790 C   0  0  0  0  0  0  0  0  0  0  0  0
   40.6770   63.9170   59.4940 C   0  0  0  0  0  0  0  0  0  0  0  0
   40.5320   64.0490   58.0440 C   0  0  0  0  0  0  0  0  0  0  0  0
   41.2420   63.3860   57.2890 O   0  0  0  0  0  0  0  0  0  0  0  0
   39.5210   64.8860   57.5600 N   0  0  0  0  0  0  0  0  0  0  0  0
   38.3250   65.2320   58.3280 C   0  0  0  0  0  0  0  0  0  0  0  0
   37.0590   65.2830   57.4610 C   0  0  0  0  0  0  0  0  0  0  0  0
   37.0540   64.1350   56.4280 C   0  0  0  0  0  0  0  0  0  0  0  0
   35.8230   64.0600   55.5930 N   0  0  0  0  0  0  0  0  0  0  0  0
   35.1510   65.3700   55.5050 C   0  0  0  0  0  0  0  0  0  0  0  0
   33.7430   65.2220   54.9280 C   0  0  0  0  0  0  0  0  0  0  0  0
   33.5930   64.0600   53.9460 C   0  0  0  0  0  0  0  0  0  0  0  0
   34.8990   63.6920   53.2350 C   0  0  1  0  0  0  0  0  0  0  0  0
   36.0870   63.5640   54.2210 C   0  0  0  0  0  0  0  0  0  0  0  0
   34.6920   62.4270   52.3910 C   0  0  0  0  0  0  0  0  0  0  0  0
   35.5430   62.6410   51.1480 C   0  0  0  0  0  0  0  0  0  0  0  0
   36.9680   62.1000   51.2830 C   0  0  0  0  0  0  0  0  0  0  0  0
   34.8810   62.0440   49.9070 C   0  0  0  0  0  0  0  0  0  0  0  0
   35.5970   64.0630   50.9920 O   0  0  0  0  0  0  0  0  0  0  0  0
   35.2480   64.6940   52.1510 C   0  0  0  0  0  0  0  0  0  0  0  0
   35.2520   65.9090   52.2730 O   0  0  0  0  0  0  0  0  0  0  0  0
   38.3120   64.2570   55.5220 C   0  0  0  0  0  0  0  0  0  0  0  0
   39.4240   65.1060   56.1290 C   0  0  0  0  0  0  0  0  0  0  0  0
   42.0175   71.2891   59.5782 H   0  0  0  0  0  0  0  0  0  0  0  0
   43.0072   71.2707   58.0793 H   0  0  0  0  0  0  0  0  0  0  0  0
   41.3636   70.5460   58.0793 H   0  0  0  0  0  0  0  0  0  0  0  0
   43.5248   69.0197   58.2798 H   0  0  0  0  0  0  0  0  0  0  0  0
   43.4167   69.5180   60.0219 H   0  0  0  0  0  0  0  0  0  0  0  0
   40.9840   68.4630   58.7840 H   0  0  0  0  0  0  0  0  0  0  0  0
   40.1420   66.8130   59.7860 H   0  0  0  0  0  0  0  0  0  0  0  0
   40.9831   62.1058   63.6370 H   0  0  0  0  0  0  0  0  0  0  0  0
   40.2979   59.8119   62.9201 H   0  0  0  0  0  0  0  0  0  0  0  0
   39.7143   59.3656   60.5504 H   0  0  0  0  0  0  0  0  0  0  0  0
   39.8332   61.1897   58.8620 H   0  0  0  0  0  0  0  0  0  0  0  0
   38.1820   64.4776   59.1157 H   0  0  0  0  0  0  0  0  0  0  0  0
   38.4797   66.2360   58.7499 H   0  0  0  0  0  0  0  0  0  0  0  0
   36.1747   65.1892   58.1085 H   0  0  0  0  0  0  0  0  0  0  0  0
   37.0396   66.2418   56.9221 H   0  0  0  0  0  0  0  0  0  0  0  0
   37.0714   63.1981   57.0041 H   0  0  0  0  0  0  0  0  0  0  0  0
   35.0837   65.8088   56.5114 H   0  0  0  0  0  0  0  0  0  0  0  0
   35.7369   66.0221   54.8405 H   0  0  0  0  0  0  0  0  0  0  0  0
   33.0425   65.0635   55.7612 H   0  0  0  0  0  0  0  0  0  0  0  0
   33.5307   66.1434   54.3659 H   0  0  0  0  0  0  0  0  0  0  0  0
   33.2374   63.1788   54.5002 H   0  0  0  0  0  0  0  0  0  0  0  0
   32.8803   64.3794   53.1713 H   0  0  0  0  0  0  0  0  0  0  0  0
   36.3594   62.5005   54.2898 H   0  0  0  0  0  0  0  0  0  0  0  0
   36.8902   64.1972   53.8161 H   0  0  0  0  0  0  0  0  0  0  0  0
   35.0280   61.5356   52.9411 H   0  0  0  0  0  0  0  0  0  0  0  0
   33.6327   62.2632   52.1440 H   0  0  0  0  0  0  0  0  0  0  0  0
   37.2239   62.0028   52.3484 H   0  0  0  0  0  0  0  0  0  0  0  0
   37.0334   61.1145   50.7988 H   0  0  0  0  0  0  0  0  0  0  0  0
   37.6710   62.7938   50.7988 H   0  0  0  0  0  0  0  0  0  0  0  0
   34.0966   61.3366   50.2142 H   0  0  0  0  0  0  0  0  0  0  0  0
   34.4334   62.8498   49.3067 H   0  0  0  0  0  0  0  0  0  0  0  0
   35.6364   61.5158   49.3067 H   0  0  0  0  0  0  0  0  0  0  0  0
   38.7070   63.2470   55.3383 H   0  0  0  0  0  0  0  0  0  0  0  0
   37.9940   64.7579   54.5957 H   0  0  0  0  0  0  0  0  0  0  0  0
   40.3807   64.8369   55.6576 H   0  0  0  0  0  0  0  0  0  0  0  0
   39.1931   66.1667   55.9514 H   0  0  0  0  0  0  0  0  0  0  0  0
  1  2  1  0
  2  3  1  0
  3  4  1  0
  4  5  2  0
  4  6  1  0
  6  7  1  0
  7  8  1  0
  8  9  1  0
  9 10  2  0
 10 11  1  0
 11 12  2  0
 12 13  1  0
 13 14  2  0
 14 15  1  0
 15 16  1  0
 16 17  2  0
 16 18  1  0
 18 19  1  0
 19 20  1  0
 20 21  1  0
 21 22  1  0
 22 23  1  0
 23 24  1  0
 24 25  1  0
 26 25  1  1
 26 27  1  0
 26 28  1  0
 28 29  1  0
 29 30  1  0
 29 31  1  0
 29 32  1  0
 32 33  1  0
 33 34  2  0
 21 35  1  0
 35 36  1  0
 15  7  2  0
 36 18  1  0
 14  9  1  0
 27 22  1  0
 33 26  1  0
  1 37  1  0
  1 38  1  0
  1 39  1  0
  2 40  1  0
  2 41  1  0
  3 42  1  0
  6 43  1  0
 10 44  1  0
 11 45  1  0
 12 46  1  0
 13 47  1  0
 19 48  1  0
 19 49  1  0
 20 50  1  0
 20 51  1  0
 21 52  1  0
 23 53  1  0
 23 54  1  0
 24 55  1  0
 24 56  1  0
 25 57  1  0
 25 58  1  0
 27 59  1  0
 27 60  1  0
 28 61  1  0
 28 62  1  0
 30 63  1  0
 30 64  1  0
 30 65  1  0
 31 66  1  0
 31 67  1  0
 31 68  1  0
 35 69  1  0
 35 70  1  0
 36 71  1  0
 36 72  1  0
M  END
>  <meeko>  (3) 
{"is_sidechain": [false], "free_energy": -8.645, "intermolecular_energy": -11.165, "internal_energy": -0.701}

$$$$
seed-1001
     RDKit          3D

 72 76  0  0  0  0  0  0  0  0999 V2000
   31.7570   63.8700   49.4430 C   0  0  0  0  0  0  0  0  0  0  0  0
   32.3940   63.2620   50.6790 C   0  0  0  0  0  0  0  0  0  0  0  0
   32.9830   64.2690   51.5370 N   0  0  0  0  0  0  0  0  0  0  0  0
   34.3290   64.5870   51.4450 C   0  0  0  0  0  0  0  0  0  0  0  0
   35.0570   64.0760   50.6060 O   0  0  0  0  0  0  0  0  0  0  0  0
   34.6670   65.5200   52.4020 N   0  0  0  0  0  0  0  0  0  0  0  0
   35.9110   66.0900   52.6270 C   0  0  0  0  0  0  0  0  0  0  0  0
   36.3890   67.5240   51.8720 S   0  0  0  0  0  0  0  0  0  0  0  0
   37.8680   67.5950   52.7380 C   0  0  0  0  0  0  0  0  0  0  0  0
   38.8390   68.6130   52.6670 C   0  0  0  0  0  0  0  0  0  0  0  0
   39.9770   68.5230   53.4710 C   0  0  0  0  0  0  0  0  0  0  0  0
   40.1450   67.4480   54.3310 C   0  0  0  0  0  0  0  0  0  0  0  0
   39.1810   66.4370   54.3910 C   0  0  0  0  0  0  0  0  0  0  0  0
   38.0210   66.4850   53.5730 C   0  0  0  0  0  0  0  0  0  0  0  0
   36.9070   65.5670   53.4360 C   0  0  0  0  0  0  0  0  0  0  0  0
   36.7520   64.2710   54.0960 C   0  0  0  0  0  0  0  0  0  0  0  0
   36.9180   63.2300   53.4610 O   0  0  0  0  0  0  0  0  0  0  0  0
   36.4880   64.2610   55.4700 N   0  0  0  0  0  0  0  0  0  0  0  0
   36.8360   65.3650   56.3650 C   0  0  0  0  0  0  0  0  0  0  0  0
   37.3500   64.8810   57.7290 C   0  0  0  0  0  0  0  0  0  0  0  0
   38.2670   63.6500   57.5650 C   0  0  0  0  0  0  0  0  0  0  0  0
   38.8740   63.1580   58.8330 N   0  0  0  0  0  0  0  0  0  0  0  0
   39.4060   61.7910   58.6810 C   0  0  0  0  0  0  0  0  0  0  0  0
   39.7310   61.1790   60.0440 C   0  0  0  0  0  0  0  0  0  0  0  0
   40.1500   62.2000   61.1010 C   0  0  0  0  0  0  0  0  0  0  0  0
   40.7840   63.4630   60.5080 C   0  0  1  0  0  0  0  0  0  0  0  0
   39.9550   64.0400   59.3340 C   0  0  0  0  0  0  0  0  0  0  0  0
   41.0310   64.4910   61.6200 C   0  0  0  0  0  0  0  0  0  0  0  0
   42.3360   65.1750   61.2400 C   0  0  0  0  0  0  0  0  0  0  0  0
   42.1420   66.4230   60.3770 C   0  0  0  0  0  0  0  0  0  0  0  0
   43.1640   65.5260   62.4760 C   0  0  0  0  0  0  0  0  0  0  0  0
   43.0490   64.1900   60.4840 O   0  0  0  0  0  0  0  0  0  0  0  0
   42.2070   63.2090   60.0450 C   0  0  0  0  0  0  0  0  0  0  0  0
   42.5780   62.2780   59.3490 O   0  0  0  0  0  0  0  0  0  0  0  0
   37.4710   62.5070   56.8720 C   0  0  0  0  0  0  0  0  0  0  0  0
   36.2340   62.9900   56.1220 C   0  0  0  0  0  0  0  0  0  0  0  0
   30.9921   64.6001   49.7461 H   0  0  0  0  0  0  0  0  0  0  0  0
   32.5287   64.3750   48.8435 H   0  0  0  0  0  0  0  0  0  0  0  0
   31.2885   63.0756   48.8435 H   0  0  0  0  0  0  0  0  0  0  0  0
   31.6228   62.7196   51.2456 H   0  0  0  0  0  0  0  0  0  0  0  0
   33.1960   62.5849   50.3498 H   0  0  0  0  0  0  0  0  0  0  0  0
   32.5320   64.4390   52.4230 H   0  0  0  0  0  0  0  0  0  0  0  0
   33.8940   65.9810   52.8700 H   0  0  0  0  0  0  0  0  0  0  0  0
   38.7026   69.4672   51.9875 H   0  0  0  0  0  0  0  0  0  0  0  0
   40.7447   69.3093   53.4220 H   0  0  0  0  0  0  0  0  0  0  0  0
   41.0398   67.3905   54.9682 H   0  0  0  0  0  0  0  0  0  0  0  0
   39.3231   65.5926   55.0815 H   0  0  0  0  0  0  0  0  0  0  0  0
   37.6202   65.9712   55.8880 H   0  0  0  0  0  0  0  0  0  0  0  0
   35.9218   65.9504   56.5425 H   0  0  0  0  0  0  0  0  0  0  0  0
   37.9176   65.6920   58.2087 H   0  0  0  0  0  0  0  0  0  0  0  0
   36.4875   64.5974   58.3500 H   0  0  0  0  0  0  0  0  0  0  0  0
   39.1144   63.9748   56.9434 H   0  0  0  0  0  0  0  0  0  0  0  0
   38.6552   61.1662   58.1752 H   0  0  0  0  0  0  0  0  0  0  0  0
   40.3302   61.8369   58.0862 H   0  0  0  0  0  0  0  0  0  0  0  0
   38.8370   60.6515   60.4081 H   0  0  0  0  0  0  0  0  0  0  0  0
   40.5886   60.5066   59.8941 H   0  0  0  0  0  0  0  0  0  0  0  0
   39.2588   62.4936   61.6751 H   0  0  0  0  0  0  0  0  0  0  0  0
   40.9115   61.7199   61.7331 H   0  0  0  0  0  0  0  0  0  0  0  0
   39.4974   64.9819   59.6708 H   0  0  0  0  0  0  0  0  0  0  0  0
   40.6576   64.1682   58.4974 H   0  0  0  0  0  0  0  0  0  0  0  0
   40.2093   65.2212   61.6612 H   0  0  0  0  0  0  0  0  0  0  0  0
   41.0843   64.0211   62.6132 H   0  0  0  0  0  0  0  0  0  0  0  0
   42.0056   67.3003   61.0264 H   0  0  0  0  0  0  0  0  0  0  0  0
   43.0279   66.5710   59.7420 H   0  0  0  0  0  0  0  0  0  0  0  0
   41.2529   66.2951   59.7420 H   0  0  0  0  0  0  0  0  0  0  0  0
   42.5905   65.2829   63.3827 H   0  0  0  0  0  0  0  0  0  0  0  0
   44.0992   64.9469   62.4674 H   0  0  0  0  0  0  0  0  0  0  0  0
   43.3981   66.6008   62.4674 H   0  0  0  0  0  0  0  0  0  0  0  0
   38.1374   62.0043   56.1556 H   0  0  0  0  0  0  0  0  0  0  0  0
   37.1222   61.8304   57.6661 H   0  0  0  0  0  0  0  0  0  0  0  0
   35.9593   62.2438   55.3620 H   0  0  0  0  0  0  0  0  0  0  0  0
   35.4145   63.1225   56.8437 H   0  0  0  0  0  0  0  0  0  0  0  0
  1  2  1  0
  2  3  1  0
  3  4  1  0
  4  5  2  0
  4  6  1  0
  6  7  1  0
  7  8  1  0
  8  9  1  0
  9 10  2  0
 10 11  1  0
 11 12  2  0
 12 13  1  0
 13 14  2  0
 14 15  1  0
 15 16  1  0
 16 17  2  0
 16 18  1  0
 18 19  1  0
 19 20  1  0
 20 21  1  0
 21 22  1  0
 22 23  1  0
 23 24  1  0
 24 25  1  0
 26 25  1  1
 26 27  1  0
 26 28  1  0
 28 29  1  0
 29 30  1  0
 29 31  1  0
 29 32  1  0
 32 33  1  0
 33 34  2  0
 21 35  1  0
 35 36  1  0
 15  7  2  0
 36 18  1  0
 14  9  1  0
 27 22  1  0
 33 26  1  0
  1 37  1  0
  1 38  1  0
  1 39  1  0
  2 40  1  0
  2 41  1  0
  3 42  1  0
  6 43  1  0
 10 44  1  0
 11 45  1  0
 12 46  1  0
 13 47  1  0
 19 48  1  0
 19 49  1  0
 20 50  1  0
 20 51  1  0
 21 52  1  0
 23 53  1  0
 23 54  1  0
 24 55  1  0
 24 56  1  0
 25 57  1  0
 25 58  1  0
 27 59  1  0
 27 60  1  0
 28 61  1  0
 28 62  1  0
 30 63  1  0
 30 64  1  0
 30 65  1  0
 31 66  1  0
 31 67  1  0
 31 68  1  0
 35 69  1  0
 35 70  1  0
 36 71  1  0
 36 72  1  0
M  END
>  <meeko>  (4) 
{"is_sidechain": [false], "free_energy": -8.634, "intermolecular_energy": -10.853, "internal_energy": -0.999}

$$$$
seed-1001
     RDKit          3D

 72 76  0  0  0  0  0  0  0  0999 V2000
   38.2160   60.3620   45.6250 C   0  0  0  0  0  0  0  0  0  0  0  0
   37.1890   61.4510   45.8760 C   0  0  0  0  0  0  0  0  0  0  0  0
   36.6270   61.3690   47.2090 N   0  0  0  0  0  0  0  0  0  0  0  0
   35.2560   61.3430   47.4070 C   0  0  0  0  0  0  0  0  0  0  0  0
   34.4690   61.3310   46.4710 O   0  0  0  0  0  0  0  0  0  0  0  0
   34.9660   61.3290   48.7550 N   0  0  0  0  0  0  0  0  0  0  0  0
   33.7140   61.2980   49.3510 C   0  0  0  0  0  0  0  0  0  0  0  0
   32.6640   59.9890   49.1590 S   0  0  0  0  0  0  0  0  0  0  0  0
   31.5070   60.6400   50.2460 C   0  0  0  0  0  0  0  0  0  0  0  0
   30.3000   60.0380   50.6540 C   0  0  0  0  0  0  0  0  0  0  0  0
   29.4880   60.7020   51.5760 C   0  0  0  0  0  0  0  0  0  0  0  0
   29.8680   61.9340   52.0850 C   0  0  0  0  0  0  0  0  0  0  0  0
   31.0630   62.5300   51.6700 C   0  0  0  0  0  0  0  0  0  0  0  0
   31.9040   61.8940   50.7190 C   0  0  0  0  0  0  0  0  0  0  0  0
   33.1600   62.3070   50.1220 C   0  0  0  0  0  0  0  0  0  0  0  0
   33.8490   63.5820   50.3220 C   0  0  0  0  0  0  0  0  0  0  0  0
   33.3280   64.6310   49.9470 O   0  0  0  0  0  0  0  0  0  0  0  0
   35.0650   63.5690   51.0120 N   0  0  0  0  0  0  0  0  0  0  0  0
   35.4480   62.5130   51.9510 C   0  0  0  0  0  0  0  0  0  0  0  0
   36.1870   63.0560   53.1820 C   0  0  0  0  0  0  0  0  0  0  0  0
   35.5540   64.3790   53.6640 C   0  0  0  0  0  0  0  0  0  0  0  0
   36.1600   64.9390   54.9040 N   0  0  0  0  0  0  0  0  0  0  0  0
   36.3270   63.9010   55.9380 C   0  0  0  0  0  0  0  0  0  0  0  0
   36.6430   64.5310   57.2950 C   0  0  0  0  0  0  0  0  0  0  0  0
   37.4090   65.8500   57.2060 C   0  0  0  0  0  0  0  0  0  0  0  0
   38.2600   65.9740   55.9380 C   0  0  1  0  0  0  0  0  0  0  0  0
   37.4700   65.5890   54.6620 C   0  0  0  0  0  0  0  0  0  0  0  0
   38.8680   67.3810   55.8560 C   0  0  0  0  0  0  0  0  0  0  0  0
   40.2490   67.1770   55.2520 C   0  0  0  0  0  0  0  0  0  0  0  0
   40.2680   67.2750   53.7250 C   0  0  0  0  0  0  0  0  0  0  0  0
   41.2680   68.1500   55.8440 C   0  0  0  0  0  0  0  0  0  0  0  0
   40.6160   65.8480   55.6390 O   0  0  0  0  0  0  0  0  0  0  0  0
   39.5190   65.1330   56.0250 C   0  0  0  0  0  0  0  0  0  0  0  0
   39.5770   63.9620   56.3660 O   0  0  0  0  0  0  0  0  0  0  0  0
   35.6160   65.4250   52.5160 C   0  0  0  0  0  0  0  0  0  0  0  0
   35.8100   64.8070   51.1350 C   0  0  0  0  0  0  0  0  0  0  0  0
   38.5818   59.9741   46.5872 H   0  0  0  0  0  0  0  0  0  0  0  0
   37.7519   59.5451   45.0530 H   0  0  0  0  0  0  0  0  0  0  0  0
   39.0587   60.7775   45.0530 H   0  0  0  0  0  0  0  0  0  0  0  0
   37.6734   62.4311   45.7543 H   0  0  0  0  0  0  0  0  0  0  0  0
   36.3704   61.3198   45.1530 H   0  0  0  0  0  0  0  0  0  0  0  0
   37.1930   61.7190   47.9680 H   0  0  0  0  0  0  0  0  0  0  0  0
   35.7420   61.1320   49.3770 H   0  0  0  0  0  0  0  0  0  0  0  0
   30.0015   59.0586   50.2518 H   0  0  0  0  0  0  0  0  0  0  0  0
   28.5415   60.2447   51.9001 H   0  0  0  0  0  0  0  0  0  0  0  0
   29.2269   62.4450   52.8184 H   0  0  0  0  0  0  0  0  0  0  0  0
   31.3556   63.5053   52.0861 H   0  0  0  0  0  0  0  0  0  0  0  0
   34.5384   61.9937   52.2870 H   0  0  0  0  0  0  0  0  0  0  0  0
   36.1334   61.8323   51.4248 H   0  0  0  0  0  0  0  0  0  0  0  0
   36.1315   62.3139   53.9920 H   0  0  0  0  0  0  0  0  0  0  0  0
   37.2350   63.2468   52.9076 H   0  0  0  0  0  0  0  0  0  0  0  0
   34.5123   64.1456   53.9294 H   0  0  0  0  0  0  0  0  0  0  0  0
   35.3968   63.3194   56.0184 H   0  0  0  0  0  0  0  0  0  0  0  0
   37.1638   63.2478   55.6495 H   0  0  0  0  0  0  0  0  0  0  0  0
   35.6940   64.7171   57.8191 H   0  0  0  0  0  0  0  0  0  0  0  0
   37.2917   63.8224   57.8308 H   0  0  0  0  0  0  0  0  0  0  0  0
   36.6833   66.6766   57.2213 H   0  0  0  0  0  0  0  0  0  0  0  0
   38.0967   65.8851   58.0638 H   0  0  0  0  0  0  0  0  0  0  0  0
   37.2928   66.5064   54.0815 H   0  0  0  0  0  0  0  0  0  0  0  0
   38.0863   64.8471   54.1331 H   0  0  0  0  0  0  0  0  0  0  0  0
   38.2562   68.0299   55.2121 H   0  0  0  0  0  0  0  0  0  0  0  0
   38.9151   67.8694   56.8405 H   0  0  0  0  0  0  0  0  0  0  0  0
   40.4695   68.3144   53.4268 H   0  0  0  0  0  0  0  0  0  0  0  0
   41.0558   66.6195   53.3253 H   0  0  0  0  0  0  0  0  0  0  0  0
   39.2923   66.9615   53.3253 H   0  0  0  0  0  0  0  0  0  0  0  0
   41.2219   68.1060   56.9422 H   0  0  0  0  0  0  0  0  0  0  0  0
   42.2780   67.8726   55.5080 H   0  0  0  0  0  0  0  0  0  0  0  0
   41.0375   69.1717   55.5080 H   0  0  0  0  0  0  0  0  0  0  0  0
   34.6746   65.9939   52.5130 H   0  0  0  0  0  0  0  0  0  0  0  0
   36.4908   66.0634   52.7089 H   0  0  0  0  0  0  0  0  0  0  0  0
   35.4588   65.5160   50.3708 H   0  0  0  0  0  0  0  0  0  0  0  0
   36.8790   64.5889   50.9950 H   0  0  0  0  0  0  0  0  0  0  0  0
  1  2  1  0
  2  3  1  0
  3  4  1  0
  4  5  2  0
  4  6  1  0
  6  7  1  0
  7  8  1  0
  8  9  1  0
  9 10  2  0
 10 11  1  0
 11 12  2  0
 12 13  1  0
 13 14  2  0
 14 15  1  0
 15 16  1  0
 16 17  2  0
 16 18  1  0
 18 19  1  0
 19 20  1  0
 20 21  1  0
 21 22  1  0
 22 23  1  0
 23 24  1  0
 24 25  1  0
 26 25  1  1
 26 27  1  0
 26 28  1  0
 28 29  1  0
 29 30  1  0
 29 31  1  0
 29 32  1  0
 32 33  1  0
 33 34  2  0
 21 35  1  0
 35 36  1  0
 15  7  2  0
 36 18  1  0
 14  9  1  0
 27 22  1  0
 33 26  1  0
  1 37  1  0
  1 38  1  0
  1 39  1  0
  2 40  1  0
  2 41  1  0
  3 42  1  0
  6 43  1  0
 10 44  1  0
 11 45  1  0
 12 46  1  0
 13 47  1  0
 19 48  1  0
 19 49  1  0
 20 50  1  0
 20 51  1  0
 21 52  1  0
 23 53  1  0
 23 54  1  0
 24 55  1  0
 24 56  1  0
 25 57  1  0
 25 58  1  0
 27 59  1  0
 27 60  1  0
 28 61  1  0
 28 62  1  0
 30 63  1  0
 30 64  1  0
 30 65  1  0
 31 66  1  0
 31 67  1  0
 31 68  1  0
 35 69  1  0
 35 70  1  0
 36 71  1  0
 36 72  1  0
M  END
>  <meeko>  (5) 
{"is_sidechain": [false], "free_energy": -8.624, "intermolecular_energy": -10.961, "internal_energy": -0.878}

$$$$
seed-1001
     RDKit          3D

 72 76  0  0  0  0  0  0  0  0999 V2000
   39.2230   63.9030   44.8060 C   0  0  0  0  0  0  0  0  0  0  0  0
   39.2560   62.4810   44.2770 C   0  0  0  0  0  0  0  0  0  0  0  0
   37.9330   61.8960   44.2150 N   0  0  0  0  0  0  0  0  0  0  0  0
   37.4470   61.1150   45.2510 C   0  0  0  0  0  0  0  0  0  0  0  0
   38.0870   60.9330   46.2770 O   0  0  0  0  0  0  0  0  0  0  0  0
   36.1990   60.6200   44.9340 N   0  0  0  0  0  0  0  0  0  0  0  0
   35.3900   59.8050   45.7110 C   0  0  0  0  0  0  0  0  0  0  0  0
   35.2230   58.1520   45.4010 S   0  0  0  0  0  0  0  0  0  0  0  0
   34.2500   57.8960   46.7900 C   0  0  0  0  0  0  0  0  0  0  0  0
   33.7380   56.6650   47.2460 C   0  0  0  0  0  0  0  0  0  0  0  0
   32.9850   56.6370   48.4220 C   0  0  0  0  0  0  0  0  0  0  0  0
   32.7500   57.8040   49.1320 C   0  0  0  0  0  0  0  0  0  0  0  0
   33.2550   59.0230   48.6710 C   0  0  0  0  0  0  0  0  0  0  0  0
   34.0080   59.0940   47.4680 C   0  0  0  0  0  0  0  0  0  0  0  0
   34.6100   60.2180   46.7790 C   0  0  0  0  0  0  0  0  0  0  0  0
   34.5120   61.6300   47.1510 C   0  0  0  0  0  0  0  0  0  0  0  0
   33.6170   62.3320   46.6810 O   0  0  0  0  0  0  0  0  0  0  0  0
   35.4120   62.1220   48.1020 N   0  0  0  0  0  0  0  0  0  0  0  0
   36.0850   61.2760   49.0880 C   0  0  0  0  0  0  0  0  0  0  0  0
   36.1990   61.9470   50.4640 C   0  0  0  0  0  0  0  0  0  0  0  0
   34.9080   62.7210   50.8070 C   0  0  0  0  0  0  0  0  0  0  0  0
   34.9000   63.3420   52.1610 N   0  0  0  0  0  0  0  0  0  0  0  0
   35.4370   62.4200   53.1790 C   0  0  0  0  0  0  0  0  0  0  0  0
   35.1330   62.9290   54.5880 C   0  0  0  0  0  0  0  0  0  0  0  0
   35.0560   64.4510   54.6970 C   0  0  0  0  0  0  0  0  0  0  0  0
   35.8930   65.1790   53.6400 C   0  0  1  0  0  0  0  0  0  0  0  0
   35.6610   64.6130   52.2160 C   0  0  0  0  0  0  0  0  0  0  0  0
   35.6380   66.6900   53.7250 C   0  0  0  0  0  0  0  0  0  0  0  0
   36.9830   67.3330   53.4190 C   0  0  0  0  0  0  0  0  0  0  0  0
   37.1920   67.6340   51.9340 C   0  0  0  0  0  0  0  0  0  0  0  0
   37.1930   68.6060   54.2380 C   0  0  0  0  0  0  0  0  0  0  0  0
   37.9480   66.3620   53.8390 O   0  0  0  0  0  0  0  0  0  0  0  0
   37.3740   65.1290   53.9670 C   0  0  0  0  0  0  0  0  0  0  0  0
   38.0050   64.1330   54.2810 O   0  0  0  0  0  0  0  0  0  0  0  0
   34.6540   63.8030   49.7190 C   0  0  0  0  0  0  0  0  0  0  0  0
   35.3930   63.5400   48.4110 C   0  0  0  0  0  0  0  0  0  0  0  0
   39.2234   63.8852   45.9059 H   0  0  0  0  0  0  0  0  0  0  0  0
   40.1087   64.4481   44.4478 H   0  0  0  0  0  0  0  0  0  0  0  0
   38.3129   64.4064   44.4478 H   0  0  0  0  0  0  0  0  0  0  0  0
   39.6893   62.4879   43.2660 H   0  0  0  0  0  0  0  0  0  0  0  0
   39.8639   61.8757   44.9655 H   0  0  0  0  0  0  0  0  0  0  0  0
   37.5450   61.7330   43.2980 H   0  0  0  0  0  0  0  0  0  0  0  0
   35.7400   61.0420   44.1350 H   0  0  0  0  0  0  0  0  0  0  0  0
   33.9287   55.7390   46.6837 H   0  0  0  0  0  0  0  0  0  0  0  0
   32.5761   55.6832   48.7869 H   0  0  0  0  0  0  0  0  0  0  0  0
   32.1636   57.7706   50.0621 H   0  0  0  0  0  0  0  0  0  0  0  0
   33.0668   59.9406   49.2477 H   0  0  0  0  0  0  0  0  0  0  0  0
   35.5148   60.3418   49.1981 H   0  0  0  0  0  0  0  0  0  0  0  0
   37.1059   61.0885   48.7238 H   0  0  0  0  0  0  0  0  0  0  0  0
   36.3700   61.1747   51.2284 H   0  0  0  0  0  0  0  0  0  0  0  0
   37.0391   62.6567   50.4409 H   0  0  0  0  0  0  0  0  0  0  0  0
   34.0968   61.9782   50.8225 H   0  0  0  0  0  0  0  0  0  0  0  0
   34.9773   61.4295   53.0466 H   0  0  0  0  0  0  0  0  0  0  0  0
   36.5282   62.3558   53.0555 H   0  0  0  0  0  0  0  0  0  0  0  0
   34.1667   62.5104   54.9058 H   0  0  0  0  0  0  0  0  0  0  0  0
   35.9665   62.6063   55.2291 H   0  0  0  0  0  0  0  0  0  0  0  0
   34.0056   64.7563   54.5812 H   0  0  0  0  0  0  0  0  0  0  0  0
   35.4628   64.7275   55.6809 H   0  0  0  0  0  0  0  0  0  0  0  0
   35.1084   65.3665   51.6356 H   0  0  0  0  0  0  0  0  0  0  0  0
   36.6582   64.3910   51.8083 H   0  0  0  0  0  0  0  0  0  0  0  0
   34.8849   66.9975   52.9846 H   0  0  0  0  0  0  0  0  0  0  0  0
   35.2509   66.9894   54.7101 H   0  0  0  0  0  0  0  0  0  0  0  0
   37.8164   68.5332   51.8265 H   0  0  0  0  0  0  0  0  0  0  0  0
   37.6927   66.7804   51.4538 H   0  0  0  0  0  0  0  0  0  0  0  0
   36.2172   67.8049   51.4538 H   0  0  0  0  0  0  0  0  0  0  0  0
   37.1529   68.3630   55.3101 H   0  0  0  0  0  0  0  0  0  0  0  0
   38.1748   69.0395   53.9967 H   0  0  0  0  0  0  0  0  0  0  0  0
   36.4025   69.3318   53.9967 H   0  0  0  0  0  0  0  0  0  0  0  0
   33.5750   63.8371   49.5079 H   0  0  0  0  0  0  0  0  0  0  0  0
   35.0330   64.7557   50.1173 H   0  0  0  0  0  0  0  0  0  0  0  0
   34.8867   64.0791   47.5968 H   0  0  0  0  0  0  0  0  0  0  0  0
   36.4304   63.8901   48.5173 H   0  0  0  0  0  0  0  0  0  0  0  0
  1  2  1  0
  2  3  1  0
  3  4  1  0
  4  5  2  0
  4  6  1  0
  6  7  1  0
  7  8  1  0
  8  9  1  0
  9 10  2  0
 10 11  1  0
 11 12  2  0
 12 13  1  0
 13 14  2  0
 14 15  1  0
 15 16  1  0
 16 17  2  0
 16 18  1  0
 18 19  1  0
 19 20  1  0
 20 21  1  0
 21 22  1  0
 22 23  1  0
 23 24  1  0
 24 25  1  0
 26 25  1  1
 26 27  1  0
 26 28  1  0
 28 29  1  0
 29 30  1  0
 29 31  1  0
 29 32  1  0
 32 33  1  0
 33 34  2  0
 21 35  1  0
 35 36  1  0
 15  7  2  0
 36 18  1  0
 14  9  1  0
 27 22  1  0
 33 26  1  0
  1 37  1  0
  1 38  1  0
  1 39  1  0
  2 40  1  0
  2 41  1  0
  3 42  1  0
  6 43  1  0
 10 44  1  0
 11 45  1  0
 12 46  1  0
 13 47  1  0
 19 48  1  0
 19 49  1  0
 20 50  1  0
 20 51  1  0
 21 52  1  0
 23 53  1  0
 23 54  1  0
 24 55  1  0
 24 56  1  0
 25 57  1  0
 25 58  1  0
 27 59  1  0
 27 60  1  0
 28 61  1  0
 28 62  1  0
 30 63  1  0
 30 64  1  0
 30 65  1  0
 31 66  1  0
 31 67  1  0
 31 68  1  0
 35 69  1  0
 35 70  1  0
 36 71  1  0
 36 72  1  0
M  END
>  <meeko>  (6) 
{"is_sidechain": [false], "free_energy": -8.525, "intermolecular_energy": -10.35, "internal_energy": -1.368}

$$$$
seed-1001
     RDKit          3D

 72 76  0  0  0  0  0  0  0  0999 V2000
   39.6570   60.2210   61.4130 C   0  0  0  0  0  0  0  0  0  0  0  0
   41.1740   60.2060   61.4570 C   0  0  0  0  0  0  0  0  0  0  0  0
   41.7280   61.5430   61.5070 N   0  0  0  0  0  0  0  0  0  0  0  0
   42.0460   62.2290   60.3460 C   0  0  0  0  0  0  0  0  0  0  0  0
   41.8240   61.7610   59.2380 O   0  0  0  0  0  0  0  0  0  0  0  0
   42.6140   63.4480   60.6500 N   0  0  0  0  0  0  0  0  0  0  0  0
   43.0610   64.4180   59.7650 C   0  0  0  0  0  0  0  0  0  0  0  0
   44.7040   64.6430   59.4380 S   0  0  0  0  0  0  0  0  0  0  0  0
   44.3960   65.8310   58.2390 C   0  0  0  0  0  0  0  0  0  0  0  0
   45.3510   66.4860   57.4360 C   0  0  0  0  0  0  0  0  0  0  0  0
   44.9170   67.4090   56.4820 C   0  0  0  0  0  0  0  0  0  0  0  0
   43.5650   67.6720   56.3250 C   0  0  0  0  0  0  0  0  0  0  0  0
   42.6230   67.0240   57.1300 C   0  0  0  0  0  0  0  0  0  0  0  0
   43.0290   66.0940   58.1240 C   0  0  0  0  0  0  0  0  0  0  0  0
   42.2630   65.3220   59.0830 C   0  0  0  0  0  0  0  0  0  0  0  0
   40.8180   65.3830   59.3050 C   0  0  0  0  0  0  0  0  0  0  0  0
   40.3650   66.0190   60.2560 O   0  0  0  0  0  0  0  0  0  0  0  0
   39.9830   64.7660   58.3680 N   0  0  0  0  0  0  0  0  0  0  0  0
   40.3780   64.5090   56.9820 C   0  0  0  0  0  0  0  0  0  0  0  0
   39.2340   64.7460   55.9870 C   0  0  0  0  0  0  0  0  0  0  0  0
   38.4140   65.9950   56.3790 C   0  0  0  0  0  0  0  0  0  0  0  0
   37.3270   66.3460   55.4230 N   0  0  0  0  0  0  0  0  0  0  0  0
   37.8530   67.0730   54.2520 C   0  0  0  0  0  0  0  0  0  0  0  0
   36.7160   67.7030   53.4470 C   0  0  0  0  0  0  0  0  0  0  0  0
   35.4020   66.9280   53.5150 C   0  0  0  0  0  0  0  0  0  0  0  0
   35.5920   65.4310   53.7810 C   0  0  1  0  0  0  0  0  0  0  0  0
   36.5690   65.1630   54.9520 C   0  0  0  0  0  0  0  0  0  0  0  0
   34.2260   64.7620   53.9850 C   0  0  0  0  0  0  0  0  0  0  0  0
   34.3630   63.3860   53.3500 C   0  0  0  0  0  0  0  0  0  0  0  0
   34.8360   62.3070   54.3260 C   0  0  0  0  0  0  0  0  0  0  0  0
   33.0600   62.9440   52.6840 C   0  0  0  0  0  0  0  0  0  0  0  0
   35.3540   63.5600   52.3300 O   0  0  0  0  0  0  0  0  0  0  0  0
   36.0750   64.7000   52.5420 C   0  0  0  0  0  0  0  0  0  0  0  0
   37.0010   65.0430   51.8240 O   0  0  0  0  0  0  0  0  0  0  0  0
   37.8320   65.7990   57.8070 C   0  0  0  0  0  0  0  0  0  0  0  0
   38.5550   64.7310   58.6210 C   0  0  0  0  0  0  0  0  0  0  0  0
   39.2604   60.2249   62.4390 H   0  0  0  0  0  0  0  0  0  0  0  0
   39.3144   61.1226   60.8840 H   0  0  0  0  0  0  0  0  0  0  0  0
   39.2967   59.3264   60.8840 H   0  0  0  0  0  0  0  0  0  0  0  0
   41.4980   59.6536   62.3513 H   0  0  0  0  0  0  0  0  0  0  0  0
   41.5360   59.7221   60.5379 H   0  0  0  0  0  0  0  0  0  0  0  0
   42.2290   61.8020   62.3440 H   0  0  0  0  0  0  0  0  0  0  0  0
   42.5290   63.7540   61.6130 H   0  0  0  0  0  0  0  0  0  0  0  0
   46.4232   66.2733   57.5589 H   0  0  0  0  0  0  0  0  0  0  0  0
   45.6523   67.9303   55.8515 H   0  0  0  0  0  0  0  0  0  0  0  0
   43.2319   68.3933   55.5642 H   0  0  0  0  0  0  0  0  0  0  0  0
   41.5528   67.2374   56.9916 H   0  0  0  0  0  0  0  0  0  0  0  0
   41.2128   65.1773   56.7242 H   0  0  0  0  0  0  0  0  0  0  0  0
   40.6675   63.4503   56.9097 H   0  0  0  0  0  0  0  0  0  0  0  0
   39.6555   64.8926   54.9816 H   0  0  0  0  0  0  0  0  0  0  0  0
   38.5689   63.8699   56.0002 H   0  0  0  0  0  0  0  0  0  0  0  0
   39.1113   66.8452   56.3509 H   0  0  0  0  0  0  0  0  0  0  0  0
   38.5336   67.8659   54.5958 H   0  0  0  0  0  0  0  0  0  0  0  0
   38.3887   66.3610   53.6070 H   0  0  0  0  0  0  0  0  0  0  0  0
   36.5394   68.7175   53.8337 H   0  0  0  0  0  0  0  0  0  0  0  0
   37.0327   67.6999   52.3936 H   0  0  0  0  0  0  0  0  0  0  0  0
   34.7891   67.3510   54.3246 H   0  0  0  0  0  0  0  0  0  0  0  0
   34.9167   67.0244   52.5326 H   0  0  0  0  0  0  0  0  0  0  0  0
   35.9861   64.7726   55.7992 H   0  0  0  0  0  0  0  0  0  0  0  0
   37.3170   64.4528   54.5697 H   0  0  0  0  0  0  0  0  0  0  0  0
   33.9957   64.6720   55.0569 H   0  0  0  0  0  0  0  0  0  0  0  0
   33.4089   65.3452   53.5353 H   0  0  0  0  0  0  0  0  0  0  0  0
   34.6837   62.6544   55.3586 H   0  0  0  0  0  0  0  0  0  0  0  0
   34.2596   61.3848   54.1606 H   0  0  0  0  0  0  0  0  0  0  0  0
   35.9048   62.1060   54.1606 H   0  0  0  0  0  0  0  0  0  0  0  0
   32.3196   62.6928   53.4577 H   0  0  0  0  0  0  0  0  0  0  0  0
   32.6729   63.7611   52.0575 H   0  0  0  0  0  0  0  0  0  0  0  0
   33.2499   62.0600   52.0575 H   0  0  0  0  0  0  0  0  0  0  0  0
   37.9044   66.7551   58.3460 H   0  0  0  0  0  0  0  0  0  0  0  0
   36.7914   65.4632   57.6873 H   0  0  0  0  0  0  0  0  0  0  0  0
   38.3743   64.9100   59.6912 H   0  0  0  0  0  0  0  0  0  0  0  0
   38.1699   63.7437   58.3263 H   0  0  0  0  0  0  0  0  0  0  0  0
  1  2  1  0
  2  3  1  0
  3  4  1  0
  4  5  2  0
  4  6  1  0
  6  7  1  0
  7  8  1  0
  8  9  1  0
  9 10  2  0
 10 11  1  0
 11 12  2  0
 12 13  1  0
 13 14  2  0
 14 15  1  0
 15 16  1  0
 16 17  2  0
 16 18  1  0
 18 19  1  0
 19 20  1  0
 20 21  1  0
 21 22  1  0
 22 23  1  0
 23 24  1  0
 24 25  1  0
 26 25  1  6
 26 27  1  0
 26 28  1  0
 28 29  1  0
 29 30  1  0
 29 31  1  0
 29 32  1  0
 32 33  1  0
 33 34  2  0
 21 35  1  0
 35 36  1  0
 15  7  2  0
 36 18  1  0
 14  9  1  0
 27 22  1  0
 33 26  1  0
  1 37  1  0
  1 38  1  0
  1 39  1  0
  2 40  1  0
  2 41  1  0
  3 42  1  0
  6 43  1  0
 10 44  1  0
 11 45  1  0
 12 46  1  0
 13 47  1  0
 19 48  1  0
 19 49  1  0
 20 50  1  0
 20 51  1  0
 21 52  1  0
 23 53  1  0
 23 54  1  0
 24 55  1  0
 24 56  1  0
 25 57  1  0
 25 58  1  0
 27 59  1  0
 27 60  1  0
 28 61  1  0
 28 62  1  0
 30 63  1  0
 30 64  1  0
 30 65  1  0
 31 66  1  0
 31 67  1  0
 31 68  1  0
 35 69  1  0
 35 70  1  0
 36 71  1  0
 36 72  1  0
M  END
>  <meeko>  (7) 
{"is_sidechain": [false], "free_energy": -8.236, "intermolecular_energy": -10.236, "internal_energy": -1.126}

$$$$
seed-1001
     RDKit          3D

 72 76  0  0  0  0  0  0  0  0999 V2000
   41.4210   69.8600   55.3750 C   0  0  0  0  0  0  0  0  0  0  0  0
   41.4390   68.3470   55.4850 C   0  0  0  0  0  0  0  0  0  0  0  0
   40.5600   67.7230   54.5180 N   0  0  0  0  0  0  0  0  0  0  0  0
   39.3610   67.1490   54.9080 C   0  0  0  0  0  0  0  0  0  0  0  0
   38.9700   67.1920   56.0660 O   0  0  0  0  0  0  0  0  0  0  0  0
   38.7340   66.5660   53.8270 N   0  0  0  0  0  0  0  0  0  0  0  0
   37.5190   65.8980   53.8120 C   0  0  0  0  0  0  0  0  0  0  0  0
   36.0870   66.6550   53.3290 S   0  0  0  0  0  0  0  0  0  0  0  0
   35.1720   65.2100   53.4570 C   0  0  0  0  0  0  0  0  0  0  0  0
   33.8080   65.0440   53.1420 C   0  0  0  0  0  0  0  0  0  0  0  0
   33.2290   63.7810   53.2770 C   0  0  0  0  0  0  0  0  0  0  0  0
   33.9880   62.7040   53.7100 C   0  0  0  0  0  0  0  0  0  0  0  0
   35.3390   62.8770   54.0270 C   0  0  0  0  0  0  0  0  0  0  0  0
   35.9560   64.1510   53.9220 C   0  0  0  0  0  0  0  0  0  0  0  0
   37.3100   64.5870   54.2070 C   0  0  0  0  0  0  0  0  0  0  0  0
   38.3910   63.7780   54.7710 C   0  0  0  0  0  0  0  0  0  0  0  0
   39.3470   63.4490   54.0700 O   0  0  0  0  0  0  0  0  0  0  0  0
   38.3350   63.4660   56.1330 N   0  0  0  0  0  0  0  0  0  0  0  0
   37.5910   64.2590   57.1120 C   0  0  0  0  0  0  0  0  0  0  0  0
   38.3290   64.3910   58.4520 C   0  0  0  0  0  0  0  0  0  0  0  0
   39.8430   64.5930   58.2270 C   0  0  0  0  0  0  0  0  0  0  0  0
   40.6300   64.8080   59.4730 N   0  0  0  0  0  0  0  0  0  0  0  0
   41.0500   63.5270   60.0730 C   0  0  0  0  0  0  0  0  0  0  0  0
   41.5690   63.7360   61.4950 C   0  0  0  0  0  0  0  0  0  0  0  0
   42.2200   65.0990   61.7260 C   0  0  0  0  0  0  0  0  0  0  0  0
   42.8130   65.7130   60.4540 C   0  0  1  0  0  0  0  0  0  0  0  0
   41.8290   65.6530   59.2590 C   0  0  0  0  0  0  0  0  0  0  0  0
   43.3050   67.1370   60.7440 C   0  0  0  0  0  0  0  0  0  0  0  0
   44.5620   67.2980   59.9030 C   0  0  0  0  0  0  0  0  0  0  0  0
   44.2940   67.8680   58.5080 C   0  0  0  0  0  0  0  0  0  0  0  0
   45.6080   68.1530   60.6170 C   0  0  0  0  0  0  0  0  0  0  0  0
   45.0780   65.9690   59.7720 O   0  0  0  0  0  0  0  0  0  0  0  0
   44.1190   65.0430   60.0670 C   0  0  0  0  0  0  0  0  0  0  0  0
   44.3120   63.8400   59.9920 O   0  0  0  0  0  0  0  0  0  0  0  0
   40.4100   63.3800   57.4360 C   0  0  0  0  0  0  0  0  0  0  0  0
   39.3450   62.5850   56.6890 C   0  0  0  0  0  0  0  0  0  0  0  0
   41.4158   70.3009   56.3828 H   0  0  0  0  0  0  0  0  0  0  0  0
   42.3152   70.1988   54.8312 H   0  0  0  0  0  0  0  0  0  0  0  0
   40.5190   70.1774   54.8312 H   0  0  0  0  0  0  0  0  0  0  0  0
   42.4655   67.9905   55.3140 H   0  0  0  0  0  0  0  0  0  0  0  0
   41.0861   68.0749   56.4907 H   0  0  0  0  0  0  0  0  0  0  0  0
   40.9830   67.3700   53.6730 H   0  0  0  0  0  0  0  0  0  0  0  0
   39.1010   66.8080   52.9130 H   0  0  0  0  0  0  0  0  0  0  0  0
   33.2081   65.8981   52.7946 H   0  0  0  0  0  0  0  0  0  0  0  0
   32.1646   63.6391   53.0386 H   0  0  0  0  0  0  0  0  0  0  0  0
   33.5257   61.7103   53.8044 H   0  0  0  0  0  0  0  0  0  0  0  0
   35.9320   62.0134   54.3625 H   0  0  0  0  0  0  0  0  0  0  0  0
   37.4286   65.2656   56.6991 H   0  0  0  0  0  0  0  0  0  0  0  0
   36.6405   63.7405   57.3060 H   0  0  0  0  0  0  0  0  0  0  0  0
   37.9276   65.2555   59.0011 H   0  0  0  0  0  0  0  0  0  0  0  0
   38.1788   63.4670   59.0296 H   0  0  0  0  0  0  0  0  0  0  0  0
   39.9495   65.5243   57.6514 H   0  0  0  0  0  0  0  0  0  0  0  0
   40.1892   62.8427   60.1006 H   0  0  0  0  0  0  0  0  0  0  0  0
   41.8595   63.1011   59.4621 H   0  0  0  0  0  0  0  0  0  0  0  0
   40.7226   63.6348   62.1903 H   0  0  0  0  0  0  0  0  0  0  0  0
   42.3489   62.9787   61.6632 H   0  0  0  0  0  0  0  0  0  0  0  0
   41.4585   65.7865   62.1228 H   0  0  0  0  0  0  0  0  0  0  0  0
   43.0505   64.9470   62.4311 H   0  0  0  0  0  0  0  0  0  0  0  0
   41.4901   66.6774   59.0450 H   0  0  0  0  0  0  0  0  0  0  0  0
   42.3839   65.1924   58.4284 H   0  0  0  0  0  0  0  0  0  0  0  0
   42.5454   67.8760   60.4493 H   0  0  0  0  0  0  0  0  0  0  0  0
   43.5009   67.2965   61.8146 H   0  0  0  0  0  0  0  0  0  0  0  0
   43.8276   68.8599   58.6006 H   0  0  0  0  0  0  0  0  0  0  0  0
   45.2437   67.9590   57.9604 H   0  0  0  0  0  0  0  0  0  0  0  0
   43.6181   67.1947   57.9604 H   0  0  0  0  0  0  0  0  0  0  0  0
   45.4838   68.0515   61.7052 H   0  0  0  0  0  0  0  0  0  0  0  0
   46.6150   67.8161   60.3299 H   0  0  0  0  0  0  0  0  0  0  0  0
   45.4782   69.2069   60.3299 H   0  0  0  0  0  0  0  0  0  0  0  0
   41.1417   63.7535   56.7045 H   0  0  0  0  0  0  0  0  0  0  0  0
   40.8630   62.6992   58.1717 H   0  0  0  0  0  0  0  0  0  0  0  0
   39.8219   62.0233   55.8722 H   0  0  0  0  0  0  0  0  0  0  0  0
   38.8596   61.8969   57.3968 H   0  0  0  0  0  0  0  0  0  0  0  0
  1  2  1  0
  2  3  1  0
  3  4  1  0
  4  5  2  0
  4  6  1  0
  6  7  1  0
  7  8  1  0
  8  9  1  0
  9 10  2  0
 10 11  1  0
 11 12  2  0
 12 13  1  0
 13 14  2  0
 14 15  1  0
 15 16  1  0
 16 17  2  0
 16 18  1  0
 18 19  1  0
 19 20  1  0
 20 21  1  0
 21 22  1  0
 22 23  1  0
 23 24  1  0
 24 25  1  0
 26 25  1  1
 26 27  1  0
 26 28  1  0
 28 29  1  0
 29 30  1  0
 29 31  1  0
 29 32  1  0
 32 33  1  0
 33 34  2  0
 21 35  1  0
 35 36  1  0
 15  7  2  0
 36 18  1  0
 14  9  1  0
 27 22  1  0
 33 26  1  0
  1 37  1  0
  1 38  1  0
  1 39  1  0
  2 40  1  0
  2 41  1  0
  3 42  1  0
  6 43  1  0
 10 44  1  0
 11 45  1  0
 12 46  1  0
 13 47  1  0
 19 48  1  0
 19 49  1  0
 20 50  1  0
 20 51  1  0
 21 52  1  0
 23 53  1  0
 23 54  1  0
 24 55  1  0
 24 56  1  0
 25 57  1  0
 25 58  1  0
 27 59  1  0
 27 60  1  0
 28 61  1  0
 28 62  1  0
 30 63  1  0
 30 64  1  0
 30 65  1  0
 31 66  1  0
 31 67  1  0
 31 68  1  0
 35 69  1  0
 35 70  1  0
 36 71  1  0
 36 72  1  0
M  END
>  <meeko>  (8) 
{"is_sidechain": [false], "free_energy": -8.13, "intermolecular_energy": -9.411, "internal_energy": -1.82}

$$$$
seed-1001
     RDKit          3D

 72 76  0  0  0  0  0  0  0  0999 V2000
   40.5380   62.2280   60.6100 C   0  0  0  0  0  0  0  0  0  0  0  0
   39.6740   61.4640   59.6230 C   0  0  0  0  0  0  0  0  0  0  0  0
   38.7800   62.3400   58.8950 N   0  0  0  0  0  0  0  0  0  0  0  0
   38.4020   62.0530   57.5930 C   0  0  0  0  0  0  0  0  0  0  0  0
   38.7590   61.0300   57.0270 O   0  0  0  0  0  0  0  0  0  0  0  0
   37.6050   63.0610   57.0920 N   0  0  0  0  0  0  0  0  0  0  0  0
   37.0280   63.1370   55.8330 C   0  0  0  0  0  0  0  0  0  0  0  0
   35.5180   62.4570   55.4980 S   0  0  0  0  0  0  0  0  0  0  0  0
   35.4920   63.0780   53.8980 C   0  0  0  0  0  0  0  0  0  0  0  0
   34.4470   62.9520   52.9610 C   0  0  0  0  0  0  0  0  0  0  0  0
   34.5840   63.5510   51.7080 C   0  0  0  0  0  0  0  0  0  0  0  0
   35.7300   64.2650   51.3930 C   0  0  0  0  0  0  0  0  0  0  0  0
   36.7660   64.3810   52.3250 C   0  0  0  0  0  0  0  0  0  0  0  0
   36.6710   63.7670   53.6020 C   0  0  0  0  0  0  0  0  0  0  0  0
   37.5990   63.7230   54.7150 C   0  0  0  0  0  0  0  0  0  0  0  0
   38.9550   64.2710   54.7490 C   0  0  0  0  0  0  0  0  0  0  0  0
   39.9080   63.5870   54.3790 O   0  0  0  0  0  0  0  0  0  0  0  0
   39.1140   65.6050   55.1390 N   0  0  0  0  0  0  0  0  0  0  0  0
   38.0520   66.6070   55.0350 C   0  0  0  0  0  0  0  0  0  0  0  0
   38.5750   67.9800   54.5910 C   0  0  0  0  0  0  0  0  0  0  0  0
   39.6570   67.8300   53.5000 C   0  0  0  0  0  0  0  0  0  0  0  0
   40.1670   69.1180   52.9530 N   0  0  0  0  0  0  0  0  0  0  0  0
   40.2650   69.0780   51.4830 C   0  0  0  0  0  0  0  0  0  0  0  0
   41.0780   70.2620   50.9590 C   0  0  0  0  0  0  0  0  0  0  0  0
   40.9790   71.5160   51.8250 C   0  0  0  0  0  0  0  0  0  0  0  0
   39.6710   71.6060   52.6180 C   0  0  1  0  0  0  0  0  0  0  0  0
   39.3360   70.2800   53.3480 C   0  0  0  0  0  0  0  0  0  0  0  0
   39.7220   72.8080   53.5700 C   0  0  0  0  0  0  0  0  0  0  0  0
   38.3030   73.3570   53.5860 C   0  0  0  0  0  0  0  0  0  0  0  0
   37.4270   72.7530   54.6840 C   0  0  0  0  0  0  0  0  0  0  0  0
   38.2940   74.8810   53.6980 C   0  0  0  0  0  0  0  0  0  0  0  0
   37.7660   72.9960   52.3080 O   0  0  0  0  0  0  0  0  0  0  0  0
   38.5050   72.0030   51.7330 C   0  0  0  0  0  0  0  0  0  0  0  0
   38.2220   71.5040   50.6550 O   0  0  0  0  0  0  0  0  0  0  0  0
   40.8330   66.9790   54.0570 C   0  0  0  0  0  0  0  0  0  0  0  0
   40.4570   66.1370   55.2730 C   0  0  0  0  0  0  0  0  0  0  0  0
   40.2415   61.9659   61.6364 H   0  0  0  0  0  0  0  0  0  0  0  0
   41.5942   61.9631   60.4544 H   0  0  0  0  0  0  0  0  0  0  0  0
   40.4043   63.3087   60.4544 H   0  0  0  0  0  0  0  0  0  0  0  0
   40.3273   60.9467   58.9050 H   0  0  0  0  0  0  0  0  0  0  0  0
   39.0614   60.7478   60.1903 H   0  0  0  0  0  0  0  0  0  0  0  0
   38.7560   63.3090   59.1760 H   0  0  0  0  0  0  0  0  0  0  0  0
   37.2450   63.7250   57.7690 H   0  0  0  0  0  0  0  0  0  0  0  0
   33.5361   62.3894   53.2137 H   0  0  0  0  0  0  0  0  0  0  0  0
   33.7778   63.4561   50.9657 H   0  0  0  0  0  0  0  0  0  0  0  0
   35.8246   64.7420   50.4063 H   0  0  0  0  0  0  0  0  0  0  0  0
   37.6672   64.9559   52.0654 H   0  0  0  0  0  0  0  0  0  0  0  0
   37.3102   66.2588   54.3012 H   0  0  0  0  0  0  0  0  0  0  0  0
   37.6094   66.7273   56.0348 H   0  0  0  0  0  0  0  0  0  0  0  0
   37.7388   68.5717   54.1902 H   0  0  0  0  0  0  0  0  0  0  0  0
   39.0202   68.4850   55.4609 H   0  0  0  0  0  0  0  0  0  0  0  0
   39.1727   67.3254   52.6510 H   0  0  0  0  0  0  0  0  0  0  0  0
   40.7560   68.1415   51.1800 H   0  0  0  0  0  0  0  0  0  0  0  0
   39.2506   69.1334   51.0611 H   0  0  0  0  0  0  0  0  0  0  0  0
   42.1345   69.9601   50.9071 H   0  0  0  0  0  0  0  0  0  0  0  0
   40.6626   70.5220   49.9742 H   0  0  0  0  0  0  0  0  0  0  0  0
   41.8185   71.5160   52.5358 H   0  0  0  0  0  0  0  0  0  0  0  0
   41.0082   72.3819   51.1472 H   0  0  0  0  0  0  0  0  0  0  0  0
   39.4685   70.4425   54.4278 H   0  0  0  0  0  0  0  0  0  0  0  0
   38.3029   70.0278   53.0667 H   0  0  0  0  0  0  0  0  0  0  0  0
   40.0251   72.4901   54.5785 H   0  0  0  0  0  0  0  0  0  0  0  0
   40.4536   73.5623   53.2448 H   0  0  0  0  0  0  0  0  0  0  0  0
   37.8301   73.0309   55.6690 H   0  0  0  0  0  0  0  0  0  0  0  0
   36.4005   73.1362   54.5864 H   0  0  0  0  0  0  0  0  0  0  0  0
   37.4202   71.6574   54.5864 H   0  0  0  0  0  0  0  0  0  0  0  0
   38.2923   75.1707   54.7592 H   0  0  0  0  0  0  0  0  0  0  0  0
   39.1897   75.2900   53.2077 H   0  0  0  0  0  0  0  0  0  0  0  0
   37.3935   75.2794   53.2077 H   0  0  0  0  0  0  0  0  0  0  0  0
   41.1811   66.3041   53.2611 H   0  0  0  0  0  0  0  0  0  0  0  0
   41.6141   67.6823   54.3813 H   0  0  0  0  0  0  0  0  0  0  0  0
   41.1673   65.3023   55.3667 H   0  0  0  0  0  0  0  0  0  0  0  0
   40.4944   66.7756   56.1679 H   0  0  0  0  0  0  0  0  0  0  0  0
  1  2  1  0
  2  3  1  0
  3  4  1  0
  4  5  2  0
  4  6  1  0
  6  7  1  0
  7  8  1  0
  8  9  1  0
  9 10  2  0
 10 11  1  0
 11 12  2  0
 12 13  1  0
 13 14  2  0
 14 15  1  0
 15 16  1  0
 16 17  2  0
 16 18  1  0
 18 19  1  0
 19 20  1  0
 20 21  1  0
 21 22  1  0
 22 23  1  0
 23 24  1  0
 24 25  1  0
 26 25  1  6
 26 27  1  0
 26 28  1  0
 28 29  1  0
 29 30  1  0
 29 31  1  0
 29 32  1  0
 32 33  1  0
 33 34  2  0
 21 35  1  0
 35 36  1  0
 15  7  2  0
 36 18  1  0
 14  9  1  0
 27 22  1  0
 33 26  1  0
  1 37  1  0
  1 38  1  0
  1 39  1  0
  2 40  1  0
  2 41  1  0
  3 42  1  0
  6 43  1  0
 10 44  1  0
 11 45  1  0
 12 46  1  0
 13 47  1  0
 19 48  1  0
 19 49  1  0
 20 50  1  0
 20 51  1  0
 21 52  1  0
 23 53  1  0
 23 54  1  0
 24 55  1  0
 24 56  1  0
 25 57  1  0
 25 58  1  0
 27 59  1  0
 27 60  1  0
 28 61  1  0
 28 62  1  0
 30 63  1  0
 30 64  1  0
 30 65  1  0
 31 66  1  0
 31 67  1  0
 31 68  1  0
 35 69  1  0
 35 70  1  0
 36 71  1  0
 36 72  1  0
M  END
>  <meeko>  (9) 
{"is_sidechain": [false], "free_energy": -8.125, "intermolecular_energy": -9.944, "internal_energy": -1.282}

$$$$
seed-1001
     RDKit          3D

 72 76  0  0  0  0  0  0  0  0999 V2000
   38.3850   66.1350   46.6230 C   0  0  0  0  0  0  0  0  0  0  0  0
   37.9770   64.8890   45.8590 C   0  0  0  0  0  0  0  0  0  0  0  0
   36.6780   64.4000   46.2720 N   0  0  0  0  0  0  0  0  0  0  0  0
   36.4780   63.0610   46.5660 C   0  0  0  0  0  0  0  0  0  0  0  0
   37.3940   62.2510   46.5430 O   0  0  0  0  0  0  0  0  0  0  0  0
   35.1540   62.8290   46.8710 N   0  0  0  0  0  0  0  0  0  0  0  0
   34.5640   61.6230   47.2200 C   0  0  0  0  0  0  0  0  0  0  0  0
   34.8400   60.2050   46.3440 S   0  0  0  0  0  0  0  0  0  0  0  0
   33.9310   59.2440   47.4370 C   0  0  0  0  0  0  0  0  0  0  0  0
   33.7440   57.8490   47.3790 C   0  0  0  0  0  0  0  0  0  0  0  0
   32.9950   57.2230   48.3760 C   0  0  0  0  0  0  0  0  0  0  0  0
   32.4470   57.9640   49.4120 C   0  0  0  0  0  0  0  0  0  0  0  0
   32.6300   59.3500   49.4590 C   0  0  0  0  0  0  0  0  0  0  0  0
   33.3690   60.0230   48.4510 C   0  0  0  0  0  0  0  0  0  0  0  0
   33.6760   61.4290   48.2660 C   0  0  0  0  0  0  0  0  0  0  0  0
   33.2050   62.5450   49.0850 C   0  0  0  0  0  0  0  0  0  0  0  0
   32.0000   62.7070   49.2760 O   0  0  0  0  0  0  0  0  0  0  0  0
   34.1630   63.3610   49.6950 N   0  0  0  0  0  0  0  0  0  0  0  0
   35.5280   62.9220   49.9880 C   0  0  0  0  0  0  0  0  0  0  0  0
   36.0420   63.4440   51.3370 C   0  0  0  0  0  0  0  0  0  0  0  0
   34.9280   63.3970   52.4050 C   0  0  0  0  0  0  0  0  0  0  0  0
   35.3590   63.8150   53.7680 N   0  0  0  0  0  0  0  0  0  0  0  0
   35.6970   62.6500   54.6070 C   0  0  0  0  0  0  0  0  0  0  0  0
   35.8260   63.0550   56.0750 C   0  0  0  0  0  0  0  0  0  0  0  0
   36.3070   64.4900   56.2850 C   0  0  0  0  0  0  0  0  0  0  0  0
   37.1610   65.0200   55.1280 C   0  0  1  0  0  0  0  0  0  0  0  0
   36.5150   64.7420   53.7470 C   0  0  0  0  0  0  0  0  0  0  0  0
   37.4690   66.5070   55.3480 C   0  0  0  0  0  0  0  0  0  0  0  0
   38.8840   66.6970   54.8230 C   0  0  0  0  0  0  0  0  0  0  0  0
   38.9400   67.0890   53.3460 C   0  0  0  0  0  0  0  0  0  0  0  0
   39.6590   67.7170   55.6570 C   0  0  0  0  0  0  0  0  0  0  0  0
   39.5030   65.4160   54.9900 O   0  0  0  0  0  0  0  0  0  0  0  0
   38.5620   64.4400   55.1560 C   0  0  0  0  0  0  0  0  0  0  0  0
   38.8460   63.2590   55.2820 O   0  0  0  0  0  0  0  0  0  0  0  0
   33.7270   64.2640   51.9330 C   0  0  0  0  0  0  0  0  0  0  0  0
   33.7180   64.5300   50.4310 C   0  0  0  0  0  0  0  0  0  0  0  0
   38.3211   65.9399   47.7037 H   0  0  0  0  0  0  0  0  0  0  0  0
   39.4184   66.4047   46.3596 H   0  0  0  0  0  0  0  0  0  0  0  0
   37.7113   66.9637   46.3596 H   0  0  0  0  0  0  0  0  0  0  0  0
   37.9422   65.1262   44.7855 H   0  0  0  0  0  0  0  0  0  0  0  0
   38.7181   64.1038   46.0694 H   0  0  0  0  0  0  0  0  0  0  0  0
   35.8720   64.9280   45.9740 H   0  0  0  0  0  0  0  0  0  0  0  0
   34.5840   63.6500   47.0420 H   0  0  0  0  0  0  0  0  0  0  0  0
   34.1824   57.2613   46.5590 H   0  0  0  0  0  0  0  0  0  0  0  0
   32.8383   56.1348   48.3399 H   0  0  0  0  0  0  0  0  0  0  0  0
   31.8667   57.4605   50.1992 H   0  0  0  0  0  0  0  0  0  0  0  0
   32.1951   59.9265   50.2888 H   0  0  0  0  0  0  0  0  0  0  0  0
   35.5477   61.8223   50.0057 H   0  0  0  0  0  0  0  0  0  0  0  0
   36.1831   63.3283   49.2033 H   0  0  0  0  0  0  0  0  0  0  0  0
   36.8849   62.8193   51.6677 H   0  0  0  0  0  0  0  0  0  0  0  0
   36.3647   64.4880   51.2107 H   0  0  0  0  0  0  0  0  0  0  0  0
   34.6381   62.3404   52.5025 H   0  0  0  0  0  0  0  0  0  0  0  0
   34.9038   61.8941   54.5102 H   0  0  0  0  0  0  0  0  0  0  0  0
   36.6605   62.2409   54.2690 H   0  0  0  0  0  0  0  0  0  0  0  0
   34.8402   62.9477   56.5511 H   0  0  0  0  0  0  0  0  0  0  0  0
   36.5862   62.3966   56.5206 H   0  0  0  0  0  0  0  0  0  0  0  0
   35.4268   65.1404   56.3954 H   0  0  0  0  0  0  0  0  0  0  0  0
   36.9404   64.4924   57.1844 H   0  0  0  0  0  0  0  0  0  0  0  0
   36.1745   65.7016   53.3309 H   0  0  0  0  0  0  0  0  0  0  0  0
   37.2899   64.2510   53.1400 H   0  0  0  0  0  0  0  0  0  0  0  0
   36.7610   67.1356   54.7880 H   0  0  0  0  0  0  0  0  0  0  0  0
   37.3780   66.7961   56.4054 H   0  0  0  0  0  0  0  0  0  0  0  0
   39.0951   68.1746   53.2604 H   0  0  0  0  0  0  0  0  0  0  0  0
   39.7717   66.5602   52.8576 H   0  0  0  0  0  0  0  0  0  0  0  0
   37.9935   66.8142   52.8576 H   0  0  0  0  0  0  0  0  0  0  0  0
   39.5026   67.5111   56.7262 H   0  0  0  0  0  0  0  0  0  0  0  0
   40.7312   67.6436   55.4225 H   0  0  0  0  0  0  0  0  0  0  0  0
   39.3009   68.7303   55.4225 H   0  0  0  0  0  0  0  0  0  0  0  0
   32.7958   63.7424   52.1993 H   0  0  0  0  0  0  0  0  0  0  0  0
   33.8179   65.2398   52.4326 H   0  0  0  0  0  0  0  0  0  0  0  0
   32.6953   64.7856   50.1167 H   0  0  0  0  0  0  0  0  0  0  0  0
   34.4050   65.3621   50.2175 H   0  0  0  0  0  0  0  0  0  0  0  0
  1  2  1  0
  2  3  1  0
  3  4  1  0
  4  5  2  0
  4  6  1  0
  6  7  1  0
  7  8  1  0
  8  9  1  0
  9 10  2  0
 10 11  1  0
 11 12  2  0
 12 13  1  0
 13 14  2  0
 14 15  1  0
 15 16  1  0
 16 17  2  0
 16 18  1  0
 18 19  1  0
 19 20  1  0
 20 21  1  0
 21 22  1  0
 22 23  1  0
 23 24  1  0
 24 25  1  0
 26 25  1  1
 26 27  1  0
 26 28  1  0
 28 29  1  0
 29 30  1  0
 29 31  1  0
 29 32  1  0
 32 33  1  0
 33 34  2  0
 21 35  1  0
 35 36  1  0
 15  7  2  0
 36 18  1  0
 14  9  1  0
 27 22  1  0
 33 26  1  0
  1 37  1  0
  1 38  1  0
  1 39  1  0
  2 40  1  0
  2 41  1  0
  3 42  1  0
  6 43  1  0
 10 44  1  0
 11 45  1  0
 12 46  1  0
 13 47  1  0
 19 48  1  0
 19 49  1  0
 20 50  1  0
 20 51  1  0
 21 52  1  0
 23 53  1  0
 23 54  1  0
 24 55  1  0
 24 56  1  0
 25 57  1  0
 25 58  1  0
 27 59  1  0
 27 60  1  0
 28 61  1  0
 28 62  1  0
 30 63  1  0
 30 64  1  0
 30 65  1  0
 31 66  1  0
 31 67  1  0
 31 68  1  0
 35 69  1  0
 35 70  1  0
 36 71  1  0
 36 72  1  0
M  END
>  <meeko>  (10) 
{"is_sidechain": [false], "free_energy": -7.978, "intermolecular_energy": -10.805, "internal_energy": -0.238}

$$$$
seed-1001
     RDKit          3D

 72 76  0  0  0  0  0  0  0  0999 V2000
   39.0160   70.7780   46.2850 C   0  0  0  0  0  0  0  0  0  0  0  0
   38.3580   70.9810   47.6380 C   0  0  0  0  0  0  0  0  0  0  0  0
   38.5390   69.8350   48.5060 N   0  0  0  0  0  0  0  0  0  0  0  0
   39.2660   69.9360   49.6800 C   0  0  0  0  0  0  0  0  0  0  0  0
   39.7360   70.9990   50.0600 O   0  0  0  0  0  0  0  0  0  0  0  0
   39.3530   68.7060   50.2980 N   0  0  0  0  0  0  0  0  0  0  0  0
   39.9930   68.4000   51.4900 C   0  0  0  0  0  0  0  0  0  0  0  0
   41.6720   68.2340   51.5870 S   0  0  0  0  0  0  0  0  0  0  0  0
   41.6430   68.0200   53.2890 C   0  0  0  0  0  0  0  0  0  0  0  0
   42.7570   67.8630   54.1380 C   0  0  0  0  0  0  0  0  0  0  0  0
   42.5490   67.7310   55.5120 C   0  0  0  0  0  0  0  0  0  0  0  0
   41.2650   67.7580   56.0330 C   0  0  0  0  0  0  0  0  0  0  0  0
   40.1640   67.9070   55.1840 C   0  0  0  0  0  0  0  0  0  0  0  0
   40.3350   68.0240   53.7790 C   0  0  0  0  0  0  0  0  0  0  0  0
   39.3720   68.1630   52.7050 C   0  0  0  0  0  0  0  0  0  0  0  0
   37.9140   68.1390   52.8250 C   0  0  0  0  0  0  0  0  0  0  0  0
   37.2460   69.0980   52.4380 O   0  0  0  0  0  0  0  0  0  0  0  0
   37.3140   66.9760   53.3170 N   0  0  0  0  0  0  0  0  0  0  0  0
   37.9430   65.6560   53.2510 C   0  0  0  0  0  0  0  0  0  0  0  0
   36.9410   64.5380   52.9270 C   0  0  0  0  0  0  0  0  0  0  0  0
   35.9220   65.0050   51.8650 C   0  0  0  0  0  0  0  0  0  0  0  0
   34.9560   63.9570   51.4330 N   0  0  0  0  0  0  0  0  0  0  0  0
   33.5660   64.4460   51.4970 C   0  0  0  0  0  0  0  0  0  0  0  0
   32.5760   63.2890   51.3660 C   0  0  0  0  0  0  0  0  0  0  0  0
   33.0870   62.1260   50.5160 C   0  0  0  0  0  0  0  0  0  0  0  0
   34.1200   62.5480   49.4670 C   0  0  1  0  0  0  0  0  0  0  0  0
   35.2250   63.4560   50.0640 C   0  0  0  0  0  0  0  0  0  0  0  0
   34.6890   61.3050   48.7690 C   0  0  0  0  0  0  0  0  0  0  0  0
   34.9030   61.7300   47.3240 C   0  0  0  0  0  0  0  0  0  0  0  0
   36.2970   62.2980   47.0540 C   0  0  0  0  0  0  0  0  0  0  0  0
   34.6180   60.5820   46.3550 C   0  0  0  0  0  0  0  0  0  0  0  0
   33.9300   62.7570   47.1050 O   0  0  0  0  0  0  0  0  0  0  0  0
   33.4690   63.2510   48.2910 C   0  0  0  0  0  0  0  0  0  0  0  0
   32.6570   64.1600   48.3610 O   0  0  0  0  0  0  0  0  0  0  0  0
   35.1590   66.2510   52.3990 C   0  0  0  0  0  0  0  0  0  0  0  0
   35.8800   66.9690   53.5350 C   0  0  0  0  0  0  0  0  0  0  0  0
   40.0581   70.4565   46.4286 H   0  0  0  0  0  0  0  0  0  0  0  0
   38.4685   70.0070   45.7230 H   0  0  0  0  0  0  0  0  0  0  0  0
   38.9981   71.7234   45.7230 H   0  0  0  0  0  0  0  0  0  0  0  0
   38.8013   71.8650   48.1196 H   0  0  0  0  0  0  0  0  0  0  0  0
   37.2787   71.1168   47.4745 H   0  0  0  0  0  0  0  0  0  0  0  0
   38.4810   68.9230   48.0790 H   0  0  0  0  0  0  0  0  0  0  0  0
   38.7300   67.9860   49.9490 H   0  0  0  0  0  0  0  0  0  0  0  0
   43.7759   67.8447   53.7238 H   0  0  0  0  0  0  0  0  0  0  0  0
   43.4096   67.6048   56.1854 H   0  0  0  0  0  0  0  0  0  0  0  0
   41.1115   67.6619   57.1180 H   0  0  0  0  0  0  0  0  0  0  0  0
   39.1505   67.9340   55.6106 H   0  0  0  0  0  0  0  0  0  0  0  0
   38.7162   65.6732   52.4688 H   0  0  0  0  0  0  0  0  0  0  0  0
   38.3712   65.4419   54.2413 H   0  0  0  0  0  0  0  0  0  0  0  0
   37.4876   63.6643   52.5425 H   0  0  0  0  0  0  0  0  0  0  0  0
   36.3967   64.2754   53.8461 H   0  0  0  0  0  0  0  0  0  0  0  0
   36.5038   65.2541   50.9653 H   0  0  0  0  0  0  0  0  0  0  0  0
   33.4054   64.9504   52.4613 H   0  0  0  0  0  0  0  0  0  0  0  0
   33.4006   65.1469   50.6655 H   0  0  0  0  0  0  0  0  0  0  0  0
   32.3531   62.9089   52.3739 H   0  0  0  0  0  0  0  0  0  0  0  0
   31.6862   63.6880   50.8570 H   0  0  0  0  0  0  0  0  0  0  0  0
   33.5502   61.3838   51.1828 H   0  0  0  0  0  0  0  0  0  0  0  0
   32.2225   61.7152   49.9739 H   0  0  0  0  0  0  0  0  0  0  0  0
   36.1620   62.8803   50.0898 H   0  0  0  0  0  0  0  0  0  0  0  0
   35.2741   64.3443   49.4170 H   0  0  0  0  0  0  0  0  0  0  0  0
   35.6420   61.0051   49.2292 H   0  0  0  0  0  0  0  0  0  0  0  0
   34.0147   60.4397   48.8503 H   0  0  0  0  0  0  0  0  0  0  0  0
   36.8008   62.5033   48.0101 H   0  0  0  0  0  0  0  0  0  0  0  0
   36.8854   61.5679   46.4789 H   0  0  0  0  0  0  0  0  0  0  0  0
   36.2075   63.2314   46.4789 H   0  0  0  0  0  0  0  0  0  0  0  0
   34.3913   59.6689   46.9249 H   0  0  0  0  0  0  0  0  0  0  0  0
   33.7571   60.8420   45.7215 H   0  0  0  0  0  0  0  0  0  0  0  0
   35.5005   60.4092   45.7215 H   0  0  0  0  0  0  0  0  0  0  0  0
   35.0266   66.9599   51.5683 H   0  0  0  0  0  0  0  0  0  0  0  0
   34.1997   65.8934   52.8013 H   0  0  0  0  0  0  0  0  0  0  0  0
   35.5194   68.0067   53.5911 H   0  0  0  0  0  0  0  0  0  0  0  0
   35.6706   66.4374   54.4750 H   0  0  0  0  0  0  0  0  0  0  0  0
  1  2  1  0
  2  3  1  0
  3  4  1  0
  4  5  2  0
  4  6  1  0
  6  7  1  0
  7  8  1  0
  8  9  1  0
  9 10  2  0
 10 11  1  0
 11 12  2  0
 12 13  1  0
 13 14  2  0
 14 15  1  0
 15 16  1  0
 16 17  2  0
 16 18  1  0
 18 19  1  0
 19 20  1  0
 20 21  1  0
 21 22  1  0
 22 23  1  0
 23 24  1  0
 24 25  1  0
 26 25  1  1
 26 27  1  0
 26 28  1  0
 28 29  1  0
 29 30  1  0
 29 31  1  0
 29 32  1  0
 32 33  1  0
 33 34  2  0
 21 35  1  0
 35 36  1  0
 15  7  2  0
 36 18  1  0
 14  9  1  0
 27 22  1  0
 33 26  1  0
  1 37  1  0
  1 38  1  0
  1 39  1  0
  2 40  1  0
  2 41  1  0
  3 42  1  0
  6 43  1  0
 10 44  1  0
 11 45  1  0
 12 46  1  0
 13 47  1  0
 19 48  1  0
 19 49  1  0
 20 50  1  0
 20 51  1  0
 21 52  1  0
 23 53  1  0
 23 54  1  0
 24 55  1  0
 24 56  1  0
 25 57  1  0
 25 58  1  0
 27 59  1  0
 27 60  1  0
 28 61  1  0
 28 62  1  0
 30 63  1  0
 30 64  1  0
 30 65  1  0
 31 66  1  0
 31 67  1  0
 31 68  1  0
 35 69  1  0
 35 70  1  0
 36 71  1  0
 36 72  1  0
M  END
>  <meeko>  (11) 
{"is_sidechain": [false], "free_energy": -7.886, "intermolecular_energy": -9.604, "internal_energy": -1.325}

$$$$
seed-1001
     RDKit          3D

 72 76  0  0  0  0  0  0  0  0999 V2000
   40.4240   62.6060   60.6350 C   0  0  0  0  0  0  0  0  0  0  0  0
   39.7310   61.8120   59.5420 C   0  0  0  0  0  0  0  0  0  0  0  0
   38.7700   62.6150   58.8150 N   0  0  0  0  0  0  0  0  0  0  0  0
   38.4480   62.3260   57.4980 C   0  0  0  0  0  0  0  0  0  0  0  0
   38.9150   61.3570   56.9170 O   0  0  0  0  0  0  0  0  0  0  0  0
   37.5650   63.2630   57.0050 N   0  0  0  0  0  0  0  0  0  0  0  0
   37.0090   63.3160   55.7350 C   0  0  0  0  0  0  0  0  0  0  0  0
   35.6140   62.4510   55.3330 S   0  0  0  0  0  0  0  0  0  0  0  0
   35.5340   63.1330   53.7610 C   0  0  0  0  0  0  0  0  0  0  0  0
   34.5360   62.9060   52.7930 C   0  0  0  0  0  0  0  0  0  0  0  0
   34.6140   63.5730   51.5680 C   0  0  0  0  0  0  0  0  0  0  0  0
   35.6560   64.4500   51.3130 C   0  0  0  0  0  0  0  0  0  0  0  0
   36.6480   64.6650   52.2750 C   0  0  0  0  0  0  0  0  0  0  0  0
   36.6130   63.9890   53.5230 C   0  0  0  0  0  0  0  0  0  0  0  0
   37.5160   64.0220   54.6570 C   0  0  0  0  0  0  0  0  0  0  0  0
   38.7830   64.7490   54.7480 C   0  0  0  0  0  0  0  0  0  0  0  0
   39.8320   64.2080   54.4030 O   0  0  0  0  0  0  0  0  0  0  0  0
   38.7450   66.0840   55.1640 N   0  0  0  0  0  0  0  0  0  0  0  0
   37.5600   66.9340   55.0370 C   0  0  0  0  0  0  0  0  0  0  0  0
   37.9060   68.3750   54.6330 C   0  0  0  0  0  0  0  0  0  0  0  0
   39.0340   68.3940   53.5790 C   0  0  0  0  0  0  0  0  0  0  0  0
   39.3820   69.7500   53.0710 N   0  0  0  0  0  0  0  0  0  0  0  0
   38.1760   70.5670   52.8460 C   0  0  0  0  0  0  0  0  0  0  0  0
   38.5100   71.8190   52.0340 C   0  0  0  0  0  0  0  0  0  0  0  0
   39.9280   72.3420   52.2530 C   0  0  0  0  0  0  0  0  0  0  0  0
   40.5040   71.9820   53.6260 C   0  0  1  0  0  0  0  0  0  0  0  0
   40.2990   70.4860   53.9740 C   0  0  0  0  0  0  0  0  0  0  0  0
   41.9760   72.4100   53.7010 C   0  0  0  0  0  0  0  0  0  0  0  0
   42.1770   72.8770   55.1350 C   0  0  0  0  0  0  0  0  0  0  0  0
   42.6390   71.7660   56.0800 C   0  0  0  0  0  0  0  0  0  0  0  0
   43.1490   74.0540   55.2100 C   0  0  0  0  0  0  0  0  0  0  0  0
   40.8830   73.3330   55.5470 O   0  0  0  0  0  0  0  0  0  0  0  0
   39.9100   72.8420   54.7250 C   0  0  0  0  0  0  0  0  0  0  0  0
   38.7220   73.0650   54.8970 O   0  0  0  0  0  0  0  0  0  0  0  0
   40.2960   67.7000   54.1660 C   0  0  0  0  0  0  0  0  0  0  0  0
   39.9970   66.7910   55.3540 C   0  0  0  0  0  0  0  0  0  0  0  0
   40.1004   62.2353   61.6188 H   0  0  0  0  0  0  0  0  0  0  0  0
   41.5135   62.4884   60.5390 H   0  0  0  0  0  0  0  0  0  0  0  0
   40.1602   63.6696   60.5390 H   0  0  0  0  0  0  0  0  0  0  0  0
   40.4896   61.4411   58.8371 H   0  0  0  0  0  0  0  0  0  0  0  0
   39.1893   60.9808   60.0170 H   0  0  0  0  0  0  0  0  0  0  0  0
   38.6460   63.5690   59.1180 H   0  0  0  0  0  0  0  0  0  0  0  0
   37.1290   63.8710   57.6890 H   0  0  0  0  0  0  0  0  0  0  0  0
   33.7068   62.2131   52.9989 H   0  0  0  0  0  0  0  0  0  0  0  0
   33.8439   63.4010   50.8016 H   0  0  0  0  0  0  0  0  0  0  0  0
   35.7031   64.9793   50.3499 H   0  0  0  0  0  0  0  0  0  0  0  0
   37.4669   65.3678   52.0618 H   0  0  0  0  0  0  0  0  0  0  0  0
   36.8979   66.5030   54.2715 H   0  0  0  0  0  0  0  0  0  0  0  0
   37.0712   66.9728   56.0217 H   0  0  0  0  0  0  0  0  0  0  0  0
   37.0109   68.8561   54.2118 H   0  0  0  0  0  0  0  0  0  0  0  0
   38.2490   68.9184   55.5258 H   0  0  0  0  0  0  0  0  0  0  0  0
   38.6520   67.8450   52.7057 H   0  0  0  0  0  0  0  0  0  0  0  0
   37.4331   69.9694   52.2975 H   0  0  0  0  0  0  0  0  0  0  0  0
   37.7741   70.8773   53.8218 H   0  0  0  0  0  0  0  0  0  0  0  0
   38.3901   71.5811   50.9667 H   0  0  0  0  0  0  0  0  0  0  0  0
   37.8237   72.6096   52.3717 H   0  0  0  0  0  0  0  0  0  0  0  0
   40.5810   71.9143   51.4779 H   0  0  0  0  0  0  0  0  0  0  0  0
   39.8813   73.4396   52.1981 H   0  0  0  0  0  0  0  0  0  0  0  0
   41.2806   69.9907   53.9403 H   0  0  0  0  0  0  0  0  0  0  0  0
   39.8313   70.4644   54.9694 H   0  0  0  0  0  0  0  0  0  0  0  0
   42.6377   71.5610   53.4744 H   0  0  0  0  0  0  0  0  0  0  0  0
   42.2150   73.1984   52.9721 H   0  0  0  0  0  0  0  0  0  0  0  0
   42.5038   72.0912   57.1221 H   0  0  0  0  0  0  0  0  0  0  0  0
   42.0434   70.8591   55.8987 H   0  0  0  0  0  0  0  0  0  0  0  0
   43.7020   71.5489   55.8987 H   0  0  0  0  0  0  0  0  0  0  0  0
   43.3498   74.2971   56.2638 H   0  0  0  0  0  0  0  0  0  0  0  0
   44.0909   73.7841   54.7101 H   0  0  0  0  0  0  0  0  0  0  0  0
   42.7059   74.9279   54.7101 H   0  0  0  0  0  0  0  0  0  0  0  0
   40.7603   67.0948   53.3734 H   0  0  0  0  0  0  0  0  0  0  0  0
   40.9622   68.4964   54.5292 H   0  0  0  0  0  0  0  0  0  0  0  0
   40.8111   66.0590   55.4609 H   0  0  0  0  0  0  0  0  0  0  0  0
   39.9159   67.4113   56.2588 H   0  0  0  0  0  0  0  0  0  0  0  0
  1  2  1  0
  2  3  1  0
  3  4  1  0
  4  5  2  0
  4  6  1  0
  6  7  1  0
  7  8  1  0
  8  9  1  0
  9 10  2  0
 10 11  1  0
 11 12  2  0
 12 13  1  0
 13 14  2  0
 14 15  1  0
 15 16  1  0
 16 17  2  0
 16 18  1  0
 18 19  1  0
 19 20  1  0
 20 21  1  0
 21 22  1  0
 22 23  1  0
 23 24  1  0
 24 25  1  0
 26 25  1  6
 26 27  1  0
 26 28  1  0
 28 29  1  0
 29 30  1  0
 29 31  1  0
 29 32  1  0
 32 33  1  0
 33 34  2  0
 21 35  1  0
 35 36  1  0
 15  7  2  0
 36 18  1  0
 14  9  1  0
 27 22  1  0
 33 26  1  0
  1 37  1  0
  1 38  1  0
  1 39  1  0
  2 40  1  0
  2 41  1  0
  3 42  1  0
  6 43  1  0
 10 44  1  0
 11 45  1  0
 12 46  1  0
 13 47  1  0
 19 48  1  0
 19 49  1  0
 20 50  1  0
 20 51  1  0
 21 52  1  0
 23 53  1  0
 23 54  1  0
 24 55  1  0
 24 56  1  0
 25 57  1  0
 25 58  1  0
 27 59  1  0
 27 60  1  0
 28 61  1  0
 28 62  1  0
 30 63  1  0
 30 64  1  0
 30 65  1  0
 31 66  1  0
 31 67  1  0
 31 68  1  0
 35 69  1  0
 35 70  1  0
 36 71  1  0
 36 72  1  0
M  END
>  <meeko>  (12) 
{"is_sidechain": [false], "free_energy": -7.714, "intermolecular_energy": -9.406, "internal_energy": -1.312}

$$$$
seed-1001
     RDKit          3D

 72 76  0  0  0  0  0  0  0  0999 V2000
   39.9680   62.4740   56.3360 C   0  0  0  0  0  0  0  0  0  0  0  0
   39.1310   63.3730   55.4450 C   0  0  0  0  0  0  0  0  0  0  0  0
   39.9210   64.4280   54.8450 N   0  0  0  0  0  0  0  0  0  0  0  0
   39.7880   65.7440   55.2570 C   0  0  0  0  0  0  0  0  0  0  0  0
   39.0450   66.0610   56.1750 O   0  0  0  0  0  0  0  0  0  0  0  0
   40.5930   66.5680   54.4980 N   0  0  0  0  0  0  0  0  0  0  0  0
   40.7390   67.9430   54.6070 C   0  0  0  0  0  0  0  0  0  0  0  0
   41.4720   68.6600   55.9500 S   0  0  0  0  0  0  0  0  0  0  0  0
   41.3830   70.2340   55.2720 C   0  0  0  0  0  0  0  0  0  0  0  0
   41.8800   71.4250   55.8380 C   0  0  0  0  0  0  0  0  0  0  0  0
   41.7470   72.6200   55.1280 C   0  0  0  0  0  0  0  0  0  0  0  0
   41.1390   72.6310   53.8810 C   0  0  0  0  0  0  0  0  0  0  0  0
   40.6420   71.4470   53.3290 C   0  0  0  0  0  0  0  0  0  0  0  0
   40.7410   70.2160   54.0320 C   0  0  0  0  0  0  0  0  0  0  0  0
   40.2920   68.8800   53.6910 C   0  0  0  0  0  0  0  0  0  0  0  0
   39.5260   68.4870   52.5080 C   0  0  0  0  0  0  0  0  0  0  0  0
   40.1060   68.2250   51.4550 O   0  0  0  0  0  0  0  0  0  0  0  0
   38.1410   68.3480   52.6400 N   0  0  0  0  0  0  0  0  0  0  0  0
   37.4750   68.0810   53.9160 C   0  0  0  0  0  0  0  0  0  0  0  0
   36.3030   67.0990   53.7780 C   0  0  0  0  0  0  0  0  0  0  0  0
   36.6510   65.9640   52.7910 C   0  0  0  0  0  0  0  0  0  0  0  0
   35.5970   64.9190   52.6540 N   0  0  0  0  0  0  0  0  0  0  0  0
   34.2660   65.4480   53.0040 C   0  0  0  0  0  0  0  0  0  0  0  0
   33.2560   64.3130   53.1710 C   0  0  0  0  0  0  0  0  0  0  0  0
   33.5430   63.0910   52.3000 C   0  0  0  0  0  0  0  0  0  0  0  0
   34.3150   63.4260   51.0190 C   0  0  1  0  0  0  0  0  0  0  0  0
   35.5390   64.3360   51.2930 C   0  0  0  0  0  0  0  0  0  0  0  0
   34.6930   62.1310   50.2860 C   0  0  0  0  0  0  0  0  0  0  0  0
   34.5750   62.4690   48.8080 C   0  0  0  0  0  0  0  0  0  0  0  0
   35.8790   62.9830   48.1930 C   0  0  0  0  0  0  0  0  0  0  0  0
   34.0610   61.2770   48.0010 C   0  0  0  0  0  0  0  0  0  0  0  0
   33.5920   63.5080   48.7540 O   0  0  0  0  0  0  0  0  0  0  0  0
   33.4210   64.0800   49.9820 C   0  0  0  0  0  0  0  0  0  0  0  0
   32.6600   65.0130   50.1800 O   0  0  0  0  0  0  0  0  0  0  0  0
   36.9850   66.5750   51.4010 C   0  0  0  0  0  0  0  0  0  0  0  0
   37.3540   68.0550   51.4570 C   0  0  0  0  0  0  0  0  0  0  0  0
   39.7553   62.7025   57.3908 H   0  0  0  0  0  0  0  0  0  0  0  0
   39.7204   61.4219   56.1316 H   0  0  0  0  0  0  0  0  0  0  0  0
   41.0351   62.6459   56.1316 H   0  0  0  0  0  0  0  0  0  0  0  0
   38.6849   62.7643   54.6448 H   0  0  0  0  0  0  0  0  0  0  0  0
   38.3546   63.8415   56.0677 H   0  0  0  0  0  0  0  0  0  0  0  0
   40.2550   64.2740   53.9050 H   0  0  0  0  0  0  0  0  0  0  0  0
   41.2910   66.1070   53.9250 H   0  0  0  0  0  0  0  0  0  0  0  0
   42.3657   71.4135   56.8249 H   0  0  0  0  0  0  0  0  0  0  0  0
   42.1264   73.5579   55.5598 H   0  0  0  0  0  0  0  0  0  0  0  0
   41.0477   73.5754   53.3244 H   0  0  0  0  0  0  0  0  0  0  0  0
   40.1677   71.4684   52.3367 H   0  0  0  0  0  0  0  0  0  0  0  0
   38.2104   67.6554   54.6146 H   0  0  0  0  0  0  0  0  0  0  0  0
   37.0683   69.0343   54.2846 H   0  0  0  0  0  0  0  0  0  0  0  0
   36.0793   66.6640   54.7632 H   0  0  0  0  0  0  0  0  0  0  0  0
   35.4293   67.6452   53.3928 H   0  0  0  0  0  0  0  0  0  0  0  0
   37.5240   65.4445   53.2127 H   0  0  0  0  0  0  0  0  0  0  0  0
   34.3377   66.0084   53.9478 H   0  0  0  0  0  0  0  0  0  0  0  0
   33.9243   66.1066   52.1919 H   0  0  0  0  0  0  0  0  0  0  0  0
   33.2632   63.9961   54.2243 H   0  0  0  0  0  0  0  0  0  0  0  0
   32.2795   64.7074   52.8533 H   0  0  0  0  0  0  0  0  0  0  0  0
   34.1363   62.3751   52.8878 H   0  0  0  0  0  0  0  0  0  0  0  0
   32.5720   62.6737   51.9949 H   0  0  0  0  0  0  0  0  0  0  0  0
   36.4494   63.7379   51.1394 H   0  0  0  0  0  0  0  0  0  0  0  0
   35.4505   65.1853   50.5996 H   0  0  0  0  0  0  0  0  0  0  0  0
   35.7223   61.8325   50.5337 H   0  0  0  0  0  0  0  0  0  0  0  0
   34.0446   61.2894   50.5713 H   0  0  0  0  0  0  0  0  0  0  0  0
   36.5790   63.2589   48.9954 H   0  0  0  0  0  0  0  0  0  0  0  0
   36.3269   62.1942   47.5708 H   0  0  0  0  0  0  0  0  0  0  0  0
   35.6682   63.8653   47.5708 H   0  0  0  0  0  0  0  0  0  0  0  0
   33.7209   60.4883   48.6882 H   0  0  0  0  0  0  0  0  0  0  0  0
   33.2214   61.5981   47.3670 H   0  0  0  0  0  0  0  0  0  0  0  0
   34.8708   60.8868   47.3670 H   0  0  0  0  0  0  0  0  0  0  0  0
   37.8332   66.0211   50.9723 H   0  0  0  0  0  0  0  0  0  0  0  0
   36.0772   66.4919   50.7854 H   0  0  0  0  0  0  0  0  0  0  0  0
   37.9387   68.3145   50.5621 H   0  0  0  0  0  0  0  0  0  0  0  0
   36.4276   68.6469   51.4957 H   0  0  0  0  0  0  0  0  0  0  0  0
  1  2  1  0
  2  3  1  0
  3  4  1  0
  4  5  2  0
  4  6  1  0
  6  7  1  0
  7  8  1  0
  8  9  1  0
  9 10  2  0
 10 11  1  0
 11 12  2  0
 12 13  1  0
 13 14  2  0
 14 15  1  0
 15 16  1  0
 16 17  2  0
 16 18  1  0
 18 19  1  0
 19 20  1  0
 20 21  1  0
 21 22  1  0
 22 23  1  0
 23 24  1  0
 24 25  1  0
 26 25  1  1
 26 27  1  0
 26 28  1  0
 28 29  1  0
 29 30  1  0
 29 31  1  0
 29 32  1  0
 32 33  1  0
 33 34  2  0
 21 35  1  0
 35 36  1  0
 15  7  2  0
 36 18  1  0
 14  9  1  0
 27 22  1  0
 33 26  1  0
  1 37  1  0
  1 38  1  0
  1 39  1  0
  2 40  1  0
  2 41  1  0
  3 42  1  0
  6 43  1  0
 10 44  1  0
 11 45  1  0
 12 46  1  0
 13 47  1  0
 19 48  1  0
 19 49  1  0
 20 50  1  0
 20 51  1  0
 21 52  1  0
 23 53  1  0
 23 54  1  0
 24 55  1  0
 24 56  1  0
 25 57  1  0
 25 58  1  0
 27 59  1  0
 27 60  1  0
 28 61  1  0
 28 62  1  0
 30 63  1  0
 30 64  1  0
 30 65  1  0
 31 66  1  0
 31 67  1  0
 31 68  1  0
 35 69  1  0
 35 70  1  0
 36 71  1  0
 36 72  1  0
M  END
>  <meeko>  (13) 
{"is_sidechain": [false], "free_energy": -7.703, "intermolecular_energy": -9.359, "internal_energy": -1.345}

$$$$
seed-1001
     RDKit          3D

 72 76  0  0  0  0  0  0  0  0999 V2000
   45.5080   66.8240   54.0570 C   0  0  0  0  0  0  0  0  0  0  0  0
   44.5510   67.1050   52.9120 C   0  0  0  0  0  0  0  0  0  0  0  0
   43.2170   67.4150   53.3840 N   0  0  0  0  0  0  0  0  0  0  0  0
   42.7690   68.7240   53.4510 C   0  0  0  0  0  0  0  0  0  0  0  0
   43.4540   69.6610   53.0660 O   0  0  0  0  0  0  0  0  0  0  0  0
   41.5010   68.7700   53.9890 N   0  0  0  0  0  0  0  0  0  0  0  0
   40.7160   69.8910   54.2140 C   0  0  0  0  0  0  0  0  0  0  0  0
   41.0460   70.9770   55.4660 S   0  0  0  0  0  0  0  0  0  0  0  0
   39.7970   72.0510   54.9860 C   0  0  0  0  0  0  0  0  0  0  0  0
   39.4800   73.2930   55.5710 C   0  0  0  0  0  0  0  0  0  0  0  0
   38.4450   74.0560   55.0280 C   0  0  0  0  0  0  0  0  0  0  0  0
   37.7420   73.5980   53.9240 C   0  0  0  0  0  0  0  0  0  0  0  0
   38.0560   72.3620   53.3520 C   0  0  0  0  0  0  0  0  0  0  0  0
   39.0890   71.5500   53.8900 C   0  0  0  0  0  0  0  0  0  0  0  0
   39.5830   70.2430   53.5000 C   0  0  0  0  0  0  0  0  0  0  0  0
   39.0480   69.3830   52.4450 C   0  0  0  0  0  0  0  0  0  0  0  0
   39.7170   69.1500   51.4380 O   0  0  0  0  0  0  0  0  0  0  0  0
   37.8010   68.7840   52.6550 N   0  0  0  0  0  0  0  0  0  0  0  0
   37.2350   68.5460   53.9830 C   0  0  0  0  0  0  0  0  0  0  0  0
   36.5000   67.2010   54.0800 C   0  0  0  0  0  0  0  0  0  0  0  0
   37.2640   66.1000   53.3150 C   0  0  0  0  0  0  0  0  0  0  0  0
   36.6610   64.7420   53.4200 N   0  0  0  0  0  0  0  0  0  0  0  0
   36.0920   64.5080   54.7600 C   0  0  0  0  0  0  0  0  0  0  0  0
   35.7700   63.0270   54.9630 C   0  0  0  0  0  0  0  0  0  0  0  0
   35.3920   62.2910   53.6790 C   0  0  0  0  0  0  0  0  0  0  0  0
   34.7830   63.2050   52.6100 C   0  0  1  0  0  0  0  0  0  0  0  0
   35.6110   64.4980   52.4030 C   0  0  0  0  0  0  0  0  0  0  0  0
   34.5780   62.4180   51.3090 C   0  0  0  0  0  0  0  0  0  0  0  0
   33.2860   62.9650   50.7190 C   0  0  0  0  0  0  0  0  0  0  0  0
   33.5000   64.1400   49.7630 C   0  0  0  0  0  0  0  0  0  0  0  0
   32.4840   61.8690   50.0170 C   0  0  0  0  0  0  0  0  0  0  0  0
   32.5370   63.4160   51.8530 O   0  0  0  0  0  0  0  0  0  0  0  0
   33.3480   63.5720   52.9410 C   0  0  0  0  0  0  0  0  0  0  0  0
   32.9430   63.9810   54.0170 O   0  0  0  0  0  0  0  0  0  0  0  0
   37.4000   66.5130   51.8220 C   0  0  0  0  0  0  0  0  0  0  0  0
   37.2110   68.0070   51.5810 C   0  0  0  0  0  0  0  0  0  0  0  0
   44.9888   66.9765   55.0147 H   0  0  0  0  0  0  0  0  0  0  0  0
   45.8612   65.7842   53.9929 H   0  0  0  0  0  0  0  0  0  0  0  0
   46.3673   67.5077   53.9929 H   0  0  0  0  0  0  0  0  0  0  0  0
   44.9307   67.9600   52.3334 H   0  0  0  0  0  0  0  0  0  0  0  0
   44.4898   66.1997   52.2901 H   0  0  0  0  0  0  0  0  0  0  0  0
   42.7850   66.7500   54.0080 H   0  0  0  0  0  0  0  0  0  0  0  0
   41.0110   67.8840   54.0560 H   0  0  0  0  0  0  0  0  0  0  0  0
   40.0410   73.6567   56.4445 H   0  0  0  0  0  0  0  0  0  0  0  0
   38.1857   75.0256   55.4782 H   0  0  0  0  0  0  0  0  0  0  0  0
   36.9339   74.2099   53.4967 H   0  0  0  0  0  0  0  0  0  0  0  0
   37.4948   72.0134   52.4725 H   0  0  0  0  0  0  0  0  0  0  0  0
   38.0511   68.5554   54.7205 H   0  0  0  0  0  0  0  0  0  0  0  0
   36.5010   69.3414   54.1795 H   0  0  0  0  0  0  0  0  0  0  0  0
   36.4156   66.9121   55.1380 H   0  0  0  0  0  0  0  0  0  0  0  0
   35.5018   67.3127   53.6316 H   0  0  0  0  0  0  0  0  0  0  0  0
   38.2511   66.0181   53.7935 H   0  0  0  0  0  0  0  0  0  0  0  0
   36.8195   64.8264   55.5212 H   0  0  0  0  0  0  0  0  0  0  0  0
   35.1613   65.0869   54.8535 H   0  0  0  0  0  0  0  0  0  0  0  0
   36.6550   62.5368   55.3948 H   0  0  0  0  0  0  0  0  0  0  0  0
   34.8936   62.9802   55.6261 H   0  0  0  0  0  0  0  0  0  0  0  0
   36.2982   61.8253   53.2644 H   0  0  0  0  0  0  0  0  0  0  0  0
   34.6264   61.5471   53.9446 H   0  0  0  0  0  0  0  0  0  0  0  0
   36.0979   64.4369   51.4185 H   0  0  0  0  0  0  0  0  0  0  0  0
   34.9008   65.3336   52.4895 H   0  0  0  0  0  0  0  0  0  0  0  0
   35.4189   62.5842   50.6197 H   0  0  0  0  0  0  0  0  0  0  0  0
   34.5258   61.3335   51.4853 H   0  0  0  0  0  0  0  0  0  0  0  0
   33.6674   65.0592   50.3435 H   0  0  0  0  0  0  0  0  0  0  0  0
   34.3768   63.9419   49.1290 H   0  0  0  0  0  0  0  0  0  0  0  0
   32.6096   64.2638   49.1290 H   0  0  0  0  0  0  0  0  0  0  0  0
   32.0104   61.2218   50.7699 H   0  0  0  0  0  0  0  0  0  0  0  0
   31.7074   62.3287   49.3880 H   0  0  0  0  0  0  0  0  0  0  0  0
   33.1571   61.2679   49.3880 H   0  0  0  0  0  0  0  0  0  0  0  0
   38.4037   66.2289   51.4728 H   0  0  0  0  0  0  0  0  0  0  0  0
   36.6021   65.9943   51.2704 H   0  0  0  0  0  0  0  0  0  0  0  0
   37.6925   68.2822   50.6310 H   0  0  0  0  0  0  0  0  0  0  0  0
   36.1331   68.2229   51.5425 H   0  0  0  0  0  0  0  0  0  0  0  0
  1  2  1  0
  2  3  1  0
  3  4  1  0
  4  5  2  0
  4  6  1  0
  6  7  1  0
  7  8  1  0
  8  9  1  0
  9 10  2  0
 10 11  1  0
 11 12  2  0
 12 13  1  0
 13 14  2  0
 14 15  1  0
 15 16  1  0
 16 17  2  0
 16 18  1  0
 18 19  1  0
 19 20  1  0
 20 21  1  0
 21 22  1  0
 22 23  1  0
 23 24  1  0
 24 25  1  0
 26 25  1  1
 26 27  1  0
 26 28  1  0
 28 29  1  0
 29 30  1  0
 29 31  1  0
 29 32  1  0
 32 33  1  0
 33 34  2  0
 21 35  1  0
 35 36  1  0
 15  7  2  0
 36 18  1  0
 14  9  1  0
 27 22  1  0
 33 26  1  0
  1 37  1  0
  1 38  1  0
  1 39  1  0
  2 40  1  0
  2 41  1  0
  3 42  1  0
  6 43  1  0
 10 44  1  0
 11 45  1  0
 12 46  1  0
 13 47  1  0
 19 48  1  0
 19 49  1  0
 20 50  1  0
 20 51  1  0
 21 52  1  0
 23 53  1  0
 23 54  1  0
 24 55  1  0
 24 56  1  0
 25 57  1  0
 25 58  1  0
 27 59  1  0
 27 60  1  0
 28 61  1  0
 28 62  1  0
 30 63  1  0
 30 64  1  0
 30 65  1  0
 31 66  1  0
 31 67  1  0
 31 68  1  0
 35 69  1  0
 35 70  1  0
 36 71  1  0
 36 72  1  0
M  END
>  <meeko>  (14) 
{"is_sidechain": [false], "free_energy": -7.697, "intermolecular_energy": -9.222, "internal_energy": -1.474}

$$$$
seed-1001
     RDKit          3D

 72 76  0  0  0  0  0  0  0  0999 V2000
   41.0780   65.9940   46.8240 C   0  0  0  0  0  0  0  0  0  0  0  0
   41.0200   67.3740   47.4540 C   0  0  0  0  0  0  0  0  0  0  0  0
   41.1660   67.3190   48.8940 N   0  0  0  0  0  0  0  0  0  0  0  0
   41.6160   68.4170   49.6090 C   0  0  0  0  0  0  0  0  0  0  0  0
   41.8540   69.4870   49.0670 O   0  0  0  0  0  0  0  0  0  0  0  0
   41.7330   68.1030   50.9460 N   0  0  0  0  0  0  0  0  0  0  0  0
   42.1470   68.9330   51.9780 C   0  0  0  0  0  0  0  0  0  0  0  0
   43.7830   69.1740   52.3300 S   0  0  0  0  0  0  0  0  0  0  0  0
   43.4440   70.3450   53.5370 C   0  0  0  0  0  0  0  0  0  0  0  0
   44.3840   71.0800   54.2870 C   0  0  0  0  0  0  0  0  0  0  0  0
   43.9270   72.0210   55.2120 C   0  0  0  0  0  0  0  0  0  0  0  0
   42.5680   72.2320   55.3850 C   0  0  0  0  0  0  0  0  0  0  0  0
   41.6410   71.4950   54.6430 C   0  0  0  0  0  0  0  0  0  0  0  0
   42.0670   70.5150   53.7080 C   0  0  0  0  0  0  0  0  0  0  0  0
   41.3170   69.6200   52.8480 C   0  0  0  0  0  0  0  0  0  0  0  0
   39.8630   69.4640   52.7990 C   0  0  0  0  0  0  0  0  0  0  0  0
   39.2410   69.7870   51.7870 O   0  0  0  0  0  0  0  0  0  0  0  0
   39.2290   68.8740   53.8960 N   0  0  0  0  0  0  0  0  0  0  0  0
   39.9080   67.9780   54.8330 C   0  0  0  0  0  0  0  0  0  0  0  0
   39.0230   66.8050   55.2780 C   0  0  0  0  0  0  0  0  0  0  0  0
   38.1950   66.2620   54.0930 C   0  0  0  0  0  0  0  0  0  0  0  0
   37.3620   65.0700   54.4150 N   0  0  0  0  0  0  0  0  0  0  0  0
   36.8810   65.1090   55.8090 C   0  0  0  0  0  0  0  0  0  0  0  0
   36.3090   63.7540   56.2250 C   0  0  0  0  0  0  0  0  0  0  0  0
   35.6880   62.9610   55.0770 C   0  0  0  0  0  0  0  0  0  0  0  0
   35.1660   63.8460   53.9400 C   0  0  1  0  0  0  0  0  0  0  0  0
   36.1980   64.9190   53.5100 C   0  0  0  0  0  0  0  0  0  0  0  0
   34.7020   62.9690   52.7690 C   0  0  0  0  0  0  0  0  0  0  0  0
   33.4870   63.6840   52.1990 C   0  0  0  0  0  0  0  0  0  0  0  0
   33.8300   64.6760   51.0850 C   0  0  0  0  0  0  0  0  0  0  0  0
   32.4360   62.6930   51.7010 C   0  0  0  0  0  0  0  0  0  0  0  0
   32.9400   64.4020   53.3100 O   0  0  0  0  0  0  0  0  0  0  0  0
   33.8600   64.5220   54.3120 C   0  0  0  0  0  0  0  0  0  0  0  0
   33.6360   65.1260   55.3490 O   0  0  0  0  0  0  0  0  0  0  0  0
   37.3030   67.4020   53.5260 C   0  0  0  0  0  0  0  0  0  0  0  0
   37.7800   68.8000   53.9080 C   0  0  0  0  0  0  0  0  0  0  0  0
   41.1101   65.2307   47.6154 H   0  0  0  0  0  0  0  0  0  0  0  0
   40.1856   65.8380   46.2001 H   0  0  0  0  0  0  0  0  0  0  0  0
   41.9803   65.9134   46.2001 H   0  0  0  0  0  0  0  0  0  0  0  0
   41.8316   67.9889   47.0379 H   0  0  0  0  0  0  0  0  0  0  0  0
   40.0355   67.8097   47.2284 H   0  0  0  0  0  0  0  0  0  0  0  0
   41.3170   66.4110   49.3060 H   0  0  0  0  0  0  0  0  0  0  0  0
   41.2950   67.2380   51.2430 H   0  0  0  0  0  0  0  0  0  0  0  0
   45.4623   70.9148   54.1457 H   0  0  0  0  0  0  0  0  0  0  0  0
   44.6499   72.5984   55.8070 H   0  0  0  0  0  0  0  0  0  0  0  0
   42.2178   72.9824   56.1091 H   0  0  0  0  0  0  0  0  0  0  0  0
   40.5655   71.6768   54.7854 H   0  0  0  0  0  0  0  0  0  0  0  0
   40.8077   67.5748   54.3451 H   0  0  0  0  0  0  0  0  0  0  0  0
   40.1593   68.5635   55.7297 H   0  0  0  0  0  0  0  0  0  0  0  0
   39.6617   66.0000   55.6704 H   0  0  0  0  0  0  0  0  0  0  0  0
   38.3324   67.1603   56.0570 H   0  0  0  0  0  0  0  0  0  0  0  0
   38.9199   65.9163   53.3414 H   0  0  0  0  0  0  0  0  0  0  0  0
   37.7199   65.3652   56.4727 H   0  0  0  0  0  0  0  0  0  0  0  0
   36.0862   65.8655   55.8862 H   0  0  0  0  0  0  0  0  0  0  0  0
   37.1224   63.1541   56.6591 H   0  0  0  0  0  0  0  0  0  0  0  0
   35.5014   63.9574   56.9436 H   0  0  0  0  0  0  0  0  0  0  0  0
   36.4514   62.2824   54.6686 H   0  0  0  0  0  0  0  0  0  0  0  0
   34.8251   62.4161   55.4875 H   0  0  0  0  0  0  0  0  0  0  0  0
   36.5747   64.6490   52.5124 H   0  0  0  0  0  0  0  0  0  0  0  0
   35.6662   65.8816   53.5317 H   0  0  0  0  0  0  0  0  0  0  0  0
   35.4938   62.8871   52.0098 H   0  0  0  0  0  0  0  0  0  0  0  0
   34.4654   61.9436   53.0892 H   0  0  0  0  0  0  0  0  0  0  0  0
   34.1588   65.6270   51.5293 H   0  0  0  0  0  0  0  0  0  0  0  0
   34.6377   64.2635   50.4625 H   0  0  0  0  0  0  0  0  0  0  0  0
   32.9400   64.8505   50.4625 H   0  0  0  0  0  0  0  0  0  0  0  0
   31.9379   62.2233   52.5620 H   0  0  0  0  0  0  0  0  0  0  0  0
   31.6906   63.2246   51.0913 H   0  0  0  0  0  0  0  0  0  0  0  0
   32.9229   61.9177   51.0913 H   0  0  0  0  0  0  0  0  0  0  0  0
   37.2963   67.3249   52.4287 H   0  0  0  0  0  0  0  0  0  0  0  0
   36.3010   67.2735   53.9613 H   0  0  0  0  0  0  0  0  0  0  0  0
   37.3763   69.5274   53.1884 H   0  0  0  0  0  0  0  0  0  0  0  0
   37.4249   69.0271   54.9241 H   0  0  0  0  0  0  0  0  0  0  0  0
  1  2  1  0
  2  3  1  0
  3  4  1  0
  4  5  2  0
  4  6  1  0
  6  7  1  0
  7  8  1  0
  8  9  1  0
  9 10  2  0
 10 11  1  0
 11 12  2  0
 12 13  1  0
 13 14  2  0
 14 15  1  0
 15 16  1  0
 16 17  2  0
 16 18  1  0
 18 19  1  0
 19 20  1  0
 20 21  1  0
 21 22  1  0
 22 23  1  0
 23 24  1  0
 24 25  1  0
 26 25  1  1
 26 27  1  0
 26 28  1  0
 28 29  1  0
 29 30  1  0
 29 31  1  0
 29 32  1  0
 32 33  1  0
 33 34  2  0
 21 35  1  0
 35 36  1  0
 15  7  2  0
 36 18  1  0
 14  9  1  0
 27 22  1  0
 33 26  1  0
  1 37  1  0
  1 38  1  0
  1 39  1  0
  2 40  1  0
  2 41  1  0
  3 42  1  0
  6 43  1  0
 10 44  1  0
 11 45  1  0
 12 46  1  0
 13 47  1  0
 19 48  1  0
 19 49  1  0
 20 50  1  0
 20 51  1  0
 21 52  1  0
 23 53  1  0
 23 54  1  0
 24 55  1  0
 24 56  1  0
 25 57  1  0
 25 58  1  0
 27 59  1  0
 27 60  1  0
 28 61  1  0
 28 62  1  0
 30 63  1  0
 30 64  1  0
 30 65  1  0
 31 66  1  0
 31 67  1  0
 31 68  1  0
 35 69  1  0
 35 70  1  0
 36 71  1  0
 36 72  1  0
M  END
>  <meeko>  (15) 
{"is_sidechain": [false], "free_energy": -7.659, "intermolecular_energy": -9.175, "internal_energy": -1.475}

$$$$
seed-1001
     RDKit          3D

 72 76  0  0  0  0  0  0  0  0999 V2000
   38.3930   69.6780   52.1490 C   0  0  0  0  0  0  0  0  0  0  0  0
   37.9510   68.6340   53.1580 C   0  0  0  0  0  0  0  0  0  0  0  0
   38.7310   68.6930   54.3770 N   0  0  0  0  0  0  0  0  0  0  0  0
   39.7950   67.8300   54.5870 C   0  0  0  0  0  0  0  0  0  0  0  0
   40.1520   67.0260   53.7370 O   0  0  0  0  0  0  0  0  0  0  0  0
   40.3370   68.0340   55.8380 N   0  0  0  0  0  0  0  0  0  0  0  0
   41.4120   67.3710   56.4130 C   0  0  0  0  0  0  0  0  0  0  0  0
   42.9900   67.5590   55.8380 S   0  0  0  0  0  0  0  0  0  0  0  0
   43.6580   66.5940   57.0900 C   0  0  0  0  0  0  0  0  0  0  0  0
   45.0230   66.3220   57.3080 C   0  0  0  0  0  0  0  0  0  0  0  0
   45.3920   65.5370   58.4020 C   0  0  0  0  0  0  0  0  0  0  0  0
   44.4280   65.0370   59.2640 C   0  0  0  0  0  0  0  0  0  0  0  0
   43.0750   65.3050   59.0380 C   0  0  0  0  0  0  0  0  0  0  0  0
   42.6600   66.0830   57.9240 C   0  0  0  0  0  0  0  0  0  0  0  0
   41.3410   66.4760   57.4670 C   0  0  0  0  0  0  0  0  0  0  0  0
   40.0580   66.0760   58.0440 C   0  0  0  0  0  0  0  0  0  0  0  0
   39.5580   66.7330   58.9570 O   0  0  0  0  0  0  0  0  0  0  0  0
   39.3960   64.9820   57.4780 N   0  0  0  0  0  0  0  0  0  0  0  0
   39.6140   64.5320   56.1030 C   0  0  0  0  0  0  0  0  0  0  0  0
   38.3170   64.0800   55.4150 C   0  0  0  0  0  0  0  0  0  0  0  0
   37.1450   65.0130   55.7860 C   0  0  0  0  0  0  0  0  0  0  0  0
   35.8610   64.6950   55.1020 N   0  0  0  0  0  0  0  0  0  0  0  0
   35.0500   65.9080   54.8860 C   0  0  0  0  0  0  0  0  0  0  0  0
   33.6210   65.5430   54.4840 C   0  0  0  0  0  0  0  0  0  0  0  0
   33.5080   64.2310   53.7100 C   0  0  0  0  0  0  0  0  0  0  0  0
   34.7790   63.8710   52.9340 C   0  0  1  0  0  0  0  0  0  0  0  0
   36.0550   64.0110   53.8020 C   0  0  0  0  0  0  0  0  0  0  0  0
   34.6340   62.4740   52.3160 C   0  0  0  0  0  0  0  0  0  0  0  0
   35.3470   62.5610   50.9750 C   0  0  0  0  0  0  0  0  0  0  0  0
   36.8260   62.1790   51.0440 C   0  0  0  0  0  0  0  0  0  0  0  0
   34.6450   61.7160   49.9120 C   0  0  0  0  0  0  0  0  0  0  0  0
   35.2370   63.9390   50.6000 O   0  0  0  0  0  0  0  0  0  0  0  0
   34.9260   64.7140   51.6810 C   0  0  0  0  0  0  0  0  0  0  0  0
   34.8140   65.9280   51.6170 O   0  0  0  0  0  0  0  0  0  0  0  0
   36.9480   65.0010   57.3290 C   0  0  0  0  0  0  0  0  0  0  0  0
   38.1720   64.5100   58.0970 C   0  0  0  0  0  0  0  0  0  0  0  0
   38.7686   70.5652   52.6799 H   0  0  0  0  0  0  0  0  0  0  0  0
   39.1925   69.2626   51.5179 H   0  0  0  0  0  0  0  0  0  0  0  0
   37.5383   69.9629   51.5179 H   0  0  0  0  0  0  0  0  0  0  0  0
   36.8927   68.8045   53.4050 H   0  0  0  0  0  0  0  0  0  0  0  0
   38.0996   67.6416   52.7073 H   0  0  0  0  0  0  0  0  0  0  0  0
   38.2760   69.0670   55.1960 H   0  0  0  0  0  0  0  0  0  0  0  0
   40.0470   68.8780   56.3200 H   0  0  0  0  0  0  0  0  0  0  0  0
   45.7874   66.7225   56.6258 H   0  0  0  0  0  0  0  0  0  0  0  0
   46.4541   65.3138   58.5812 H   0  0  0  0  0  0  0  0  0  0  0  0
   44.7290   64.4273   60.1287 H   0  0  0  0  0  0  0  0  0  0  0  0
   42.3204   64.9077   59.7328 H   0  0  0  0  0  0  0  0  0  0  0  0
   40.0480   65.3617   55.5257 H   0  0  0  0  0  0  0  0  0  0  0  0
   40.2902   63.6652   56.1401 H   0  0  0  0  0  0  0  0  0  0  0  0
   38.4617   64.0991   54.3247 H   0  0  0  0  0  0  0  0  0  0  0  0
   38.0762   63.0609   55.7519 H   0  0  0  0  0  0  0  0  0  0  0  0
   37.4237   66.0162   55.4310 H   0  0  0  0  0  0  0  0  0  0  0  0
   35.0240   66.4945   55.8163 H   0  0  0  0  0  0  0  0  0  0  0  0
   35.5046   66.4954   54.0747 H   0  0  0  0  0  0  0  0  0  0  0  0
   33.0156   65.4581   55.3985 H   0  0  0  0  0  0  0  0  0  0  0  0
   33.2665   66.3393   53.8130 H   0  0  0  0  0  0  0  0  0  0  0  0
   33.2946   63.4221   54.4242 H   0  0  0  0  0  0  0  0  0  0  0  0
   32.7020   64.3576   52.9722 H   0  0  0  0  0  0  0  0  0  0  0  0
   36.4424   63.0013   54.0031 H   0  0  0  0  0  0  0  0  0  0  0  0
   36.7488   64.6408   53.2259 H   0  0  0  0  0  0  0  0  0  0  0  0
   35.1079   61.7164   52.9574 H   0  0  0  0  0  0  0  0  0  0  0  0
   33.5803   62.1784   52.2054 H   0  0  0  0  0  0  0  0  0  0  0  0
   37.1353   62.0991   52.0966 H   0  0  0  0  0  0  0  0  0  0  0  0
   36.9787   61.2119   50.5425 H   0  0  0  0  0  0  0  0  0  0  0  0
   37.4279   62.9512   50.5425 H   0  0  0  0  0  0  0  0  0  0  0  0
   34.0158   60.9586   50.4023 H   0  0  0  0  0  0  0  0  0  0  0  0
   34.0162   62.3646   49.2844 H   0  0  0  0  0  0  0  0  0  0  0  0
   35.3979   61.2167   49.2844 H   0  0  0  0  0  0  0  0  0  0  0  0
   36.7185   66.0251   57.6583 H   0  0  0  0  0  0  0  0  0  0  0  0
   36.1289   64.2991   57.5443 H   0  0  0  0  0  0  0  0  0  0  0  0
   38.1232   64.8850   59.1300 H   0  0  0  0  0  0  0  0  0  0  0  0
   38.1749   63.4101   58.0869 H   0  0  0  0  0  0  0  0  0  0  0  0
  1  2  1  0
  2  3  1  0
  3  4  1  0
  4  5  2  0
  4  6  1  0
  6  7  1  0
  7  8  1  0
  8  9  1  0
  9 10  2  0
 10 11  1  0
 11 12  2  0
 12 13  1  0
 13 14  2  0
 14 15  1  0
 15 16  1  0
 16 17  2  0
 16 18  1  0
 18 19  1  0
 19 20  1  0
 20 21  1  0
 21 22  1  0
 22 23  1  0
 23 24  1  0
 24 25  1  0
 26 25  1  1
 26 27  1  0
 26 28  1  0
 28 29  1  0
 29 30  1  0
 29 31  1  0
 29 32  1  0
 32 33  1  0
 33 34  2  0
 21 35  1  0
 35 36  1  0
 15  7  2  0
 36 18  1  0
 14  9  1  0
 27 22  1  0
 33 26  1  0
  1 37  1  0
  1 38  1  0
  1 39  1  0
  2 40  1  0
  2 41  1  0
  3 42  1  0
  6 43  1  0
 10 44  1  0
 11 45  1  0
 12 46  1  0
 13 47  1  0
 19 48  1  0
 19 49  1  0
 20 50  1  0
 20 51  1  0
 21 52  1  0
 23 53  1  0
 23 54  1  0
 24 55  1  0
 24 56  1  0
 25 57  1  0
 25 58  1  0
 27 59  1  0
 27 60  1  0
 28 61  1  0
 28 62  1  0
 30 63  1  0
 30 64  1  0
 30 65  1  0
 31 66  1  0
 31 67  1  0
 31 68  1  0
 35 69  1  0
 35 70  1  0
 36 71  1  0
 36 72  1  0
M  END
>  <meeko>  (16) 
{"is_sidechain": [false], "free_energy": -7.555, "intermolecular_energy": -9.043, "internal_energy": -1.478}

$$$$
seed-1001
     RDKit          3D

 72 76  0  0  0  0  0  0  0  0999 V2000
   34.0560   62.9860   47.2130 C   0  0  0  0  0  0  0  0  0  0  0  0
   35.5060   62.7670   46.8230 C   0  0  0  0  0  0  0  0  0  0  0  0
   36.2960   63.9730   46.9730 N   0  0  0  0  0  0  0  0  0  0  0  0
   37.3770   64.2270   46.1450 C   0  0  0  0  0  0  0  0  0  0  0  0
   37.6750   63.4790   45.2240 O   0  0  0  0  0  0  0  0  0  0  0  0
   38.0040   65.3950   46.5220 N   0  0  0  0  0  0  0  0  0  0  0  0
   39.1170   65.9850   45.9390 C   0  0  0  0  0  0  0  0  0  0  0  0
   40.2520   65.0860   45.0680 S   0  0  0  0  0  0  0  0  0  0  0  0
   41.1400   66.4810   44.6100 C   0  0  0  0  0  0  0  0  0  0  0  0
   42.2750   66.5220   43.7750 C   0  0  0  0  0  0  0  0  0  0  0  0
   42.8560   67.7570   43.4810 C   0  0  0  0  0  0  0  0  0  0  0  0
   42.3200   68.9260   43.9990 C   0  0  0  0  0  0  0  0  0  0  0  0
   41.1990   68.8770   44.8330 C   0  0  0  0  0  0  0  0  0  0  0  0
   40.5930   67.6370   45.1710 C   0  0  0  0  0  0  0  0  0  0  0  0
   39.4580   67.3250   46.0170 C   0  0  0  0  0  0  0  0  0  0  0  0
   38.6760   68.2660   46.8200 C   0  0  0  0  0  0  0  0  0  0  0  0
   37.5120   68.5210   46.5140 O   0  0  0  0  0  0  0  0  0  0  0  0
   39.2690   68.7960   47.9710 N   0  0  0  0  0  0  0  0  0  0  0  0
   40.3620   68.1400   48.6890 C   0  0  0  0  0  0  0  0  0  0  0  0
   40.2280   68.2660   50.2140 C   0  0  0  0  0  0  0  0  0  0  0  0
   38.7560   68.1020   50.6510 C   0  0  0  0  0  0  0  0  0  0  0  0
   38.5420   68.1330   52.1250 N   0  0  0  0  0  0  0  0  0  0  0  0
   37.5380   69.1460   52.5020 C   0  0  0  0  0  0  0  0  0  0  0  0
   37.5570   69.3950   54.0100 C   0  0  0  0  0  0  0  0  0  0  0  0
   37.9680   68.1790   54.8370 C   0  0  0  0  0  0  0  0  0  0  0  0
   37.6580   66.8440   54.1510 C   0  0  1  0  0  0  0  0  0  0  0  0
   38.1290   66.8200   52.6750 C   0  0  0  0  0  0  0  0  0  0  0  0
   38.2400   65.6880   54.9760 C   0  0  0  0  0  0  0  0  0  0  0  0
   37.2300   64.5590   54.8360 C   0  0  0  0  0  0  0  0  0  0  0  0
   37.5180   63.6250   53.6580 C   0  0  0  0  0  0  0  0  0  0  0  0
   37.1190   63.7440   56.1240 C   0  0  0  0  0  0  0  0  0  0  0  0
   35.9810   65.2210   54.6120 O   0  0  0  0  0  0  0  0  0  0  0  0
   36.1790   66.5130   54.2150 C   0  0  0  0  0  0  0  0  0  0  0  0
   35.2630   67.2680   53.9310 O   0  0  0  0  0  0  0  0  0  0  0  0
   37.8910   69.1930   49.9590 C   0  0  0  0  0  0  0  0  0  0  0  0
   38.5470   69.8030   48.7250 C   0  0  0  0  0  0  0  0  0  0  0  0
   33.9692   62.9991   48.3095 H   0  0  0  0  0  0  0  0  0  0  0  0
   33.7080   63.9469   46.8061 H   0  0  0  0  0  0  0  0  0  0  0  0
   33.4397   62.1708   46.8061 H   0  0  0  0  0  0  0  0  0  0  0  0
   35.9317   61.9814   47.4645 H   0  0  0  0  0  0  0  0  0  0  0  0
   35.5325   62.4727   45.7634 H   0  0  0  0  0  0  0  0  0  0  0  0
   36.3050   64.4040   47.8850 H   0  0  0  0  0  0  0  0  0  0  0  0
   37.4970   65.9870   47.1710 H   0  0  0  0  0  0  0  0  0  0  0  0
   42.6969   65.5943   43.3610 H   0  0  0  0  0  0  0  0  0  0  0  0
   43.7446   67.8028   42.8343 H   0  0  0  0  0  0  0  0  0  0  0  0
   42.7783   69.8953   43.7530 H   0  0  0  0  0  0  0  0  0  0  0  0
   40.7800   69.8120   45.2334 H   0  0  0  0  0  0  0  0  0  0  0  0
   40.3674   67.0727   48.4230 H   0  0  0  0  0  0  0  0  0  0  0  0
   41.2985   68.6367   48.3952 H   0  0  0  0  0  0  0  0  0  0  0  0
   40.8360   67.4857   50.6951 H   0  0  0  0  0  0  0  0  0  0  0  0
   40.5764   69.2644   50.5171 H   0  0  0  0  0  0  0  0  0  0  0  0
   38.4482   67.0948   50.3334 H   0  0  0  0  0  0  0  0  0  0  0  0
   37.7613   70.0872   51.9783 H   0  0  0  0  0  0  0  0  0  0  0  0
   36.5414   68.7768   52.2184 H   0  0  0  0  0  0  0  0  0  0  0  0
   38.2668   70.2095   54.2168 H   0  0  0  0  0  0  0  0  0  0  0  0
   36.5267   69.6449   54.3035 H   0  0  0  0  0  0  0  0  0  0  0  0
   39.0510   68.2329   55.0220 H   0  0  0  0  0  0  0  0  0  0  0  0
   37.3853   68.2082   55.7695 H   0  0  0  0  0  0  0  0  0  0  0  0
   38.9867   66.1351   52.6022 H   0  0  0  0  0  0  0  0  0  0  0  0
   37.2602   66.4991   52.0816 H   0  0  0  0  0  0  0  0  0  0  0  0
   39.2190   65.3830   54.5777 H   0  0  0  0  0  0  0  0  0  0  0  0
   38.4023   65.9701   56.0267 H   0  0  0  0  0  0  0  0  0  0  0  0
   37.8222   62.6386   54.0380 H   0  0  0  0  0  0  0  0  0  0  0  0
   36.6111   63.5180   53.0447 H   0  0  0  0  0  0  0  0  0  0  0  0
   38.3277   64.0473   53.0447 H   0  0  0  0  0  0  0  0  0  0  0  0
   37.2103   64.4145   56.9912 H   0  0  0  0  0  0  0  0  0  0  0  0
   36.1435   63.2366   56.1539 H   0  0  0  0  0  0  0  0  0  0  0  0
   37.9233   62.9942   56.1539 H   0  0  0  0  0  0  0  0  0  0  0  0
   36.9360   68.7388   49.6561 H   0  0  0  0  0  0  0  0  0  0  0  0
   37.7562   70.0065   50.6871 H   0  0  0  0  0  0  0  0  0  0  0  0
   37.7690   70.2436   48.0842 H   0  0  0  0  0  0  0  0  0  0  0  0
   39.2591   70.5753   49.0512 H   0  0  0  0  0  0  0  0  0  0  0  0
  1  2  1  0
  2  3  1  0
  3  4  1  0
  4  5  2  0
  4  6  1  0
  6  7  1  0
  7  8  1  0
  8  9  1  0
  9 10  2  0
 10 11  1  0
 11 12  2  0
 12 13  1  0
 13 14  2  0
 14 15  1  0
 15 16  1  0
 16 17  2  0
 16 18  1  0
 18 19  1  0
 19 20  1  0
 20 21  1  0
 21 22  1  0
 22 23  1  0
 23 24  1  0
 24 25  1  0
 26 25  1  1
 26 27  1  0
 26 28  1  0
 28 29  1  0
 29 30  1  0
 29 31  1  0
 29 32  1  0
 32 33  1  0
 33 34  2  0
 21 35  1  0
 35 36  1  0
 15  7  2  0
 36 18  1  0
 14  9  1  0
 27 22  1  0
 33 26  1  0
  1 37  1  0
  1 38  1  0
  1 39  1  0
  2 40  1  0
  2 41  1  0
  3 42  1  0
  6 43  1  0
 10 44  1  0
 11 45  1  0
 12 46  1  0
 13 47  1  0
 19 48  1  0
 19 49  1  0
 20 50  1  0
 20 51  1  0
 21 52  1  0
 23 53  1  0
 23 54  1  0
 24 55  1  0
 24 56  1  0
 25 57  1  0
 25 58  1  0
 27 59  1  0
 27 60  1  0
 28 61  1  0
 28 62  1  0
 30 63  1  0
 30 64  1  0
 30 65  1  0
 31 66  1  0
 31 67  1  0
 31 68  1  0
 35 69  1  0
 35 70  1  0
 36 71  1  0
 36 72  1  0
M  END
>  <meeko>  (17) 
{"is_sidechain": [false], "free_energy": -7.552, "intermolecular_energy": -9.514, "internal_energy": -1.003}

$$$$
seed-1001
     RDKit          3D

 72 76  0  0  0  0  0  0  0  0999 V2000
   43.0990   70.3990   58.9010 C   0  0  0  0  0  0  0  0  0  0  0  0
   43.0610   71.3780   57.7410 C   0  0  0  0  0  0  0  0  0  0  0  0
   41.7620   71.4100   57.1010 N   0  0  0  0  0  0  0  0  0  0  0  0
   41.5890   72.0090   55.8640 C   0  0  0  0  0  0  0  0  0  0  0  0
   42.5280   72.4840   55.2400 O   0  0  0  0  0  0  0  0  0  0  0  0
   40.2620   71.9700   55.4940 N   0  0  0  0  0  0  0  0  0  0  0  0
   39.6930   72.4620   54.3280 C   0  0  0  0  0  0  0  0  0  0  0  0
   39.0150   74.0080   54.2450 S   0  0  0  0  0  0  0  0  0  0  0  0
   38.7030   73.8800   52.5630 C   0  0  0  0  0  0  0  0  0  0  0  0
   38.1550   74.8750   51.7290 C   0  0  0  0  0  0  0  0  0  0  0  0
   37.9980   74.6080   50.3680 C   0  0  0  0  0  0  0  0  0  0  0  0
   38.3810   73.3830   49.8440 C   0  0  0  0  0  0  0  0  0  0  0  0
   38.9180   72.3970   50.6780 C   0  0  0  0  0  0  0  0  0  0  0  0
   39.0730   72.6260   52.0720 C   0  0  0  0  0  0  0  0  0  0  0  0
   39.5740   71.7730   53.1320 C   0  0  0  0  0  0  0  0  0  0  0  0
   39.9900   70.3750   53.0110 C   0  0  0  0  0  0  0  0  0  0  0  0
   41.1860   70.0860   52.9960 O   0  0  0  0  0  0  0  0  0  0  0  0
   38.9940   69.3930   52.9930 N   0  0  0  0  0  0  0  0  0  0  0  0
   37.6610   69.5870   53.5640 C   0  0  0  0  0  0  0  0  0  0  0  0
   37.1340   68.3330   54.2770 C   0  0  0  0  0  0  0  0  0  0  0  0
   38.2620   67.6370   55.0680 C   0  0  0  0  0  0  0  0  0  0  0  0
   37.8240   66.4510   55.8560 N   0  0  0  0  0  0  0  0  0  0  0  0
   37.2680   65.4000   54.9830 C   0  0  0  0  0  0  0  0  0  0  0  0
   36.5360   64.3400   55.8060 C   0  0  0  0  0  0  0  0  0  0  0  0
   37.1040   64.1420   57.2110 C   0  0  0  0  0  0  0  0  0  0  0  0
   38.5900   64.4980   57.3220 C   0  0  1  0  0  0  0  0  0  0  0  0
   38.9150   65.8670   56.6730 C   0  0  0  0  0  0  0  0  0  0  0  0
   39.0360   64.4180   58.7880 C   0  0  0  0  0  0  0  0  0  0  0  0
   40.4580   63.8800   58.7370 C   0  0  0  0  0  0  0  0  0  0  0  0
   41.5230   64.9760   58.6620 C   0  0  0  0  0  0  0  0  0  0  0  0
   40.7500   62.9580   59.9210 C   0  0  0  0  0  0  0  0  0  0  0  0
   40.5040   63.1010   57.5370 O   0  0  0  0  0  0  0  0  0  0  0  0
   39.4700   63.4260   56.7060 C   0  0  0  0  0  0  0  0  0  0  0  0
   39.3180   62.9200   55.6060 O   0  0  0  0  0  0  0  0  0  0  0  0
   39.4050   67.2400   54.0910 C   0  0  0  0  0  0  0  0  0  0  0  0
   39.3810   68.0120   52.7760 C   0  0  0  0  0  0  0  0  0  0  0  0
   43.0774   70.9543   59.8503 H   0  0  0  0  0  0  0  0  0  0  0  0
   42.2261   69.7319   58.8465 H   0  0  0  0  0  0  0  0  0  0  0  0
   44.0210   69.8016   58.8465 H   0  0  0  0  0  0  0  0  0  0  0  0
   43.2963   72.3844   58.1176 H   0  0  0  0  0  0  0  0  0  0  0  0
   43.7997   71.0499   56.9949 H   0  0  0  0  0  0  0  0  0  0  0  0
   40.9530   71.3570   57.7010 H   0  0  0  0  0  0  0  0  0  0  0  0
   39.6640   71.3570   56.0360 H   0  0  0  0  0  0  0  0  0  0  0  0
   37.8552   75.8483   52.1447 H   0  0  0  0  0  0  0  0  0  0  0  0
   37.5676   75.3746   49.7069 H   0  0  0  0  0  0  0  0  0  0  0  0
   38.2621   73.1858   48.7684 H   0  0  0  0  0  0  0  0  0  0  0  0
   39.2244   71.4315   50.2493 H   0  0  0  0  0  0  0  0  0  0  0  0
   37.7057   70.4121   54.2901 H   0  0  0  0  0  0  0  0  0  0  0  0
   36.9737   69.8117   52.7351 H   0  0  0  0  0  0  0  0  0  0  0  0
   36.3324   68.6235   54.9721 H   0  0  0  0  0  0  0  0  0  0  0  0
   36.7500   67.6327   53.5206 H   0  0  0  0  0  0  0  0  0  0  0  0
   38.6143   68.3670   55.8117 H   0  0  0  0  0  0  0  0  0  0  0  0
   36.5619   65.8567   54.2739 H   0  0  0  0  0  0  0  0  0  0  0  0
   38.0955   64.9168   54.4428 H   0  0  0  0  0  0  0  0  0  0  0  0
   35.4819   64.6407   55.8983 H   0  0  0  0  0  0  0  0  0  0  0  0
   36.6590   63.3843   55.2755 H   0  0  0  0  0  0  0  0  0  0  0  0
   36.5398   64.7789   57.9082 H   0  0  0  0  0  0  0  0  0  0  0  0
   37.0070   63.0733   57.4530 H   0  0  0  0  0  0  0  0  0  0  0  0
   39.1554   66.5771   57.4779 H   0  0  0  0  0  0  0  0  0  0  0  0
   39.7522   65.6874   55.9824 H   0  0  0  0  0  0  0  0  0  0  0  0
   39.0159   65.4145   59.2533 H   0  0  0  0  0  0  0  0  0  0  0  0
   38.3727   63.7774   59.3877 H   0  0  0  0  0  0  0  0  0  0  0  0
   41.8136   65.2751   59.6799 H   0  0  0  0  0  0  0  0  0  0  0  0
   42.4046   64.5945   58.1261 H   0  0  0  0  0  0  0  0  0  0  0  0
   41.1164   65.8463   58.1261 H   0  0  0  0  0  0  0  0  0  0  0  0
   40.5775   63.5026   60.8610 H   0  0  0  0  0  0  0  0  0  0  0  0
   40.0851   62.0828   59.8769 H   0  0  0  0  0  0  0  0  0  0  0  0
   41.7975   62.6252   59.8769 H   0  0  0  0  0  0  0  0  0  0  0  0
   40.3681   67.4292   54.5876 H   0  0  0  0  0  0  0  0  0  0  0  0
   39.2629   66.1776   53.8436 H   0  0  0  0  0  0  0  0  0  0  0  0
   40.3838   67.9858   52.3247 H   0  0  0  0  0  0  0  0  0  0  0  0
   38.6456   67.5422   52.1063 H   0  0  0  0  0  0  0  0  0  0  0  0
  1  2  1  0
  2  3  1  0
  3  4  1  0
  4  5  2  0
  4  6  1  0
  6  7  1  0
  7  8  1  0
  8  9  1  0
  9 10  2  0
 10 11  1  0
 11 12  2  0
 12 13  1  0
 13 14  2  0
 14 15  1  0
 15 16  1  0
 16 17  2  0
 16 18  1  0
 18 19  1  0
 19 20  1  0
 20 21  1  0
 21 22  1  0
 22 23  1  0
 23 24  1  0
 24 25  1  0
 26 25  1  1
 26 27  1  0
 26 28  1  0
 28 29  1  0
 29 30  1  0
 29 31  1  0
 29 32  1  0
 32 33  1  0
 33 34  2  0
 21 35  1  0
 35 36  1  0
 15  7  2  0
 36 18  1  0
 14  9  1  0
 27 22  1  0
 33 26  1  0
  1 37  1  0
  1 38  1  0
  1 39  1  0
  2 40  1  0
  2 41  1  0
  3 42  1  0
  6 43  1  0
 10 44  1  0
 11 45  1  0
 12 46  1  0
 13 47  1  0
 19 48  1  0
 19 49  1  0
 20 50  1  0
 20 51  1  0
 21 52  1  0
 23 53  1  0
 23 54  1  0
 24 55  1  0
 24 56  1  0
 25 57  1  0
 25 58  1  0
 27 59  1  0
 27 60  1  0
 28 61  1  0
 28 62  1  0
 30 63  1  0
 30 64  1  0
 30 65  1  0
 31 66  1  0
 31 67  1  0
 31 68  1  0
 35 69  1  0
 35 70  1  0
 36 71  1  0
 36 72  1  0
M  END
>  <meeko>  (18) 
{"is_sidechain": [false], "free_energy": -7.41, "intermolecular_energy": -8.783, "internal_energy": -1.559}

$$$$
seed-1001
     RDKit          3D

 72 76  0  0  0  0  0  0  0  0999 V2000
   39.2980   69.8480   53.9220 C   0  0  0  0  0  0  0  0  0  0  0  0
   40.8080   69.7720   54.0630 C   0  0  0  0  0  0  0  0  0  0  0  0
   41.2100   69.4650   55.4200 N   0  0  0  0  0  0  0  0  0  0  0  0
   41.6840   68.2080   55.7580 C   0  0  0  0  0  0  0  0  0  0  0  0
   41.8340   67.3280   54.9230 O   0  0  0  0  0  0  0  0  0  0  0  0
   41.9390   68.1410   57.1120 N   0  0  0  0  0  0  0  0  0  0  0  0
   42.4250   67.0570   57.8290 C   0  0  0  0  0  0  0  0  0  0  0  0
   44.0610   66.6330   57.8110 S   0  0  0  0  0  0  0  0  0  0  0  0
   43.8440   65.3860   58.9690 C   0  0  0  0  0  0  0  0  0  0  0  0
   44.8470   64.5680   59.5250 C   0  0  0  0  0  0  0  0  0  0  0  0
   44.4930   63.6170   60.4850 C   0  0  0  0  0  0  0  0  0  0  0  0
   43.1730   63.4860   60.8880 C   0  0  0  0  0  0  0  0  0  0  0  0
   42.1810   64.2960   60.3270 C   0  0  0  0  0  0  0  0  0  0  0  0
   42.5010   65.2590   59.3330 C   0  0  0  0  0  0  0  0  0  0  0  0
   41.6670   66.1870   58.5950 C   0  0  0  0  0  0  0  0  0  0  0  0
   40.2090   66.2980   58.6580 C   0  0  0  0  0  0  0  0  0  0  0  0
   39.6840   67.1230   59.4060 O   0  0  0  0  0  0  0  0  0  0  0  0
   39.4520   65.4990   57.7960 N   0  0  0  0  0  0  0  0  0  0  0  0
   39.9690   64.9540   56.5400 C   0  0  0  0  0  0  0  0  0  0  0  0
   38.9290   64.9780   55.4110 C   0  0  0  0  0  0  0  0  0  0  0  0
   38.1060   66.2840   55.4500 C   0  0  0  0  0  0  0  0  0  0  0  0
   37.1220   66.4280   54.3420 N   0  0  0  0  0  0  0  0  0  0  0  0
   37.7950   66.6540   53.0500 C   0  0  0  0  0  0  0  0  0  0  0  0
   36.7960   67.1160   51.9880 C   0  0  0  0  0  0  0  0  0  0  0  0
   35.3820   66.5740   52.1880 C   0  0  0  0  0  0  0  0  0  0  0  0
   35.3420   65.2390   52.9390 C   0  0  1  0  0  0  0  0  0  0  0  0
   36.2210   65.2580   54.2150 C   0  0  0  0  0  0  0  0  0  0  0  0
   33.8870   64.8490   53.2290 C   0  0  0  0  0  0  0  0  0  0  0  0
   33.8510   63.3350   53.0870 C   0  0  0  0  0  0  0  0  0  0  0  0
   34.1210   62.5920   54.3970 C   0  0  0  0  0  0  0  0  0  0  0  0
   32.5260   62.8600   52.4900 C   0  0  0  0  0  0  0  0  0  0  0  0
   34.8970   63.0370   52.1570 O   0  0  0  0  0  0  0  0  0  0  0  0
   35.7670   64.0850   52.0510 C   0  0  0  0  0  0  0  0  0  0  0  0
   36.7610   64.0540   51.3430 O   0  0  0  0  0  0  0  0  0  0  0  0
   37.3870   66.3960   56.8250 C   0  0  0  0  0  0  0  0  0  0  0  0
   38.0060   65.5230   57.9120 C   0  0  0  0  0  0  0  0  0  0  0  0
   38.8372   69.8712   54.9206 H   0  0  0  0  0  0  0  0  0  0  0  0
   39.0266   70.7609   53.3716 H   0  0  0  0  0  0  0  0  0  0  0  0
   38.9363   68.9669   53.3716 H   0  0  0  0  0  0  0  0  0  0  0  0
   41.1884   68.9866   53.3933 H   0  0  0  0  0  0  0  0  0  0  0  0
   41.2245   70.7552   53.7988 H   0  0  0  0  0  0  0  0  0  0  0  0
   40.7900   70.0100   56.1580 H   0  0  0  0  0  0  0  0  0  0  0  0
   41.9540   69.0240   57.6090 H   0  0  0  0  0  0  0  0  0  0  0  0
   45.8946   64.6766   59.2076 H   0  0  0  0  0  0  0  0  0  0  0  0
   45.2658   62.9686   60.9236 H   0  0  0  0  0  0  0  0  0  0  0  0
   42.9050   62.7417   61.6523 H   0  0  0  0  0  0  0  0  0  0  0  0
   41.1384   64.1860   60.6600 H   0  0  0  0  0  0  0  0  0  0  0  0
   40.8394   65.5506   56.2294 H   0  0  0  0  0  0  0  0  0  0  0  0
   40.2394   63.9031   56.7202 H   0  0  0  0  0  0  0  0  0  0  0  0
   39.4463   64.9067   54.4428 H   0  0  0  0  0  0  0  0  0  0  0  0
   38.2452   64.1267   55.5439 H   0  0  0  0  0  0  0  0  0  0  0  0
   38.8230   67.1066   55.3110 H   0  0  0  0  0  0  0  0  0  0  0  0
   38.5685   67.4258   53.1769 H   0  0  0  0  0  0  0  0  0  0  0  0
   38.2474   65.7076   52.7190 H   0  0  0  0  0  0  0  0  0  0  0  0
   36.7516   68.2149   52.0096 H   0  0  0  0  0  0  0  0  0  0  0  0
   37.1532   66.7256   51.0236 H   0  0  0  0  0  0  0  0  0  0  0  0
   34.8030   67.3135   52.7606 H   0  0  0  0  0  0  0  0  0  0  0  0
   34.9580   66.3969   51.1886 H   0  0  0  0  0  0  0  0  0  0  0  0
   35.5530   65.2462   55.0889 H   0  0  0  0  0  0  0  0  0  0  0  0
   36.8738   64.3751   54.1497 H   0  0  0  0  0  0  0  0  0  0  0  0
   33.6019   65.1489   54.2482 H   0  0  0  0  0  0  0  0  0  0  0  0
   33.1816   65.3455   52.5464 H   0  0  0  0  0  0  0  0  0  0  0  0
   33.8824   63.2485   55.2468 H   0  0  0  0  0  0  0  0  0  0  0  0
   33.4932   61.6899   54.4430 H   0  0  0  0  0  0  0  0  0  0  0  0
   35.1815   62.3034   54.4430 H   0  0  0  0  0  0  0  0  0  0  0  0
   31.8271   62.6094   53.3016 H   0  0  0  0  0  0  0  0  0  0  0  0
   32.0958   63.6599   51.8694 H   0  0  0  0  0  0  0  0  0  0  0  0
   32.7019   61.9690   51.8694 H   0  0  0  0  0  0  0  0  0  0  0  0
   37.4296   67.4444   57.1551 H   0  0  0  0  0  0  0  0  0  0  0  0
   36.3550   66.0445   56.6784 H   0  0  0  0  0  0  0  0  0  0  0  0
   37.7304   65.9258   58.8978 H   0  0  0  0  0  0  0  0  0  0  0  0
   37.6271   64.4968   57.7966 H   0  0  0  0  0  0  0  0  0  0  0  0
  1  2  1  0
  2  3  1  0
  3  4  1  0
  4  5  2  0
  4  6  1  0
  6  7  1  0
  7  8  1  0
  8  9  1  0
  9 10  2  0
 10 11  1  0
 11 12  2  0
 12 13  1  0
 13 14  2  0
 14 15  1  0
 15 16  1  0
 16 17  2  0
 16 18  1  0
 18 19  1  0
 19 20  1  0
 20 21  1  0
 21 22  1  0
 22 23  1  0
 23 24  1  0
 24 25  1  0
 26 25  1  6
 26 27  1  0
 26 28  1  0
 28 29  1  0
 29 30  1  0
 29 31  1  0
 29 32  1  0
 32 33  1  0
 33 34  2  0
 21 35  1  0
 35 36  1  0
 15  7  2  0
 36 18  1  0
 14  9  1  0
 27 22  1  0
 33 26  1  0
  1 37  1  0
  1 38  1  0
  1 39  1  0
  2 40  1  0
  2 41  1  0
  3 42  1  0
  6 43  1  0
 10 44  1  0
 11 45  1  0
 12 46  1  0
 13 47  1  0
 19 48  1  0
 19 49  1  0
 20 50  1  0
 20 51  1  0
 21 52  1  0
 23 53  1  0
 23 54  1  0
 24 55  1  0
 24 56  1  0
 25 57  1  0
 25 58  1  0
 27 59  1  0
 27 60  1  0
 28 61  1  0
 28 62  1  0
 30 63  1  0
 30 64  1  0
 30 65  1  0
 31 66  1  0
 31 67  1  0
 31 68  1  0
 35 69  1  0
 35 70  1  0
 36 71  1  0
 36 72  1  0
M  END
>  <meeko>  (19) 
{"is_sidechain": [false], "free_energy": -7.377, "intermolecular_energy": -8.592, "internal_energy": -1.709}

$$$$
seed-1001
     RDKit          3D

 72 76  0  0  0  0  0  0  0  0999 V2000
   39.1780   67.2300   47.3780 C   0  0  0  0  0  0  0  0  0  0  0  0
   39.1140   68.6980   46.9980 C   0  0  0  0  0  0  0  0  0  0  0  0
   39.7250   69.5450   48.0010 N   0  0  0  0  0  0  0  0  0  0  0  0
   38.9570   70.1810   48.9630 C   0  0  0  0  0  0  0  0  0  0  0  0
   37.7480   70.0130   49.0400 O   0  0  0  0  0  0  0  0  0  0  0  0
   39.7510   70.9780   49.7610 N   0  0  0  0  0  0  0  0  0  0  0  0
   39.3550   71.7670   50.8310 C   0  0  0  0  0  0  0  0  0  0  0  0
   38.7110   73.3140   50.6110 S   0  0  0  0  0  0  0  0  0  0  0  0
   38.3820   73.5130   52.2830 C   0  0  0  0  0  0  0  0  0  0  0  0
   37.7540   74.6170   52.8930 C   0  0  0  0  0  0  0  0  0  0  0  0
   37.5370   74.5970   54.2730 C   0  0  0  0  0  0  0  0  0  0  0  0
   37.9310   73.5040   55.0290 C   0  0  0  0  0  0  0  0  0  0  0  0
   38.5610   72.4150   54.4180 C   0  0  0  0  0  0  0  0  0  0  0  0
   38.8160   72.4090   53.0210 C   0  0  0  0  0  0  0  0  0  0  0  0
   39.4620   71.4290   52.1700 C   0  0  0  0  0  0  0  0  0  0  0  0
   40.0990   70.1820   52.5940 C   0  0  0  0  0  0  0  0  0  0  0  0
   41.2640   70.1870   52.9900 O   0  0  0  0  0  0  0  0  0  0  0  0
   39.3230   69.0180   52.6030 N   0  0  0  0  0  0  0  0  0  0  0  0
   37.8630   69.0240   52.7070 C   0  0  0  0  0  0  0  0  0  0  0  0
   37.3280   67.8920   53.5940 C   0  0  0  0  0  0  0  0  0  0  0  0
   38.2270   67.6930   54.8330 C   0  0  0  0  0  0  0  0  0  0  0  0
   37.7400   66.6630   55.7930 N   0  0  0  0  0  0  0  0  0  0  0  0
   36.9810   65.6020   55.1040 C   0  0  0  0  0  0  0  0  0  0  0  0
   36.2210   64.7370   56.1100 C   0  0  0  0  0  0  0  0  0  0  0  0
   36.9030   64.6220   57.4720 C   0  0  0  0  0  0  0  0  0  0  0  0
   38.4240   64.8000   57.4080 C   0  0  1  0  0  0  0  0  0  0  0  0
   38.8340   66.0400   56.5740 C   0  0  0  0  0  0  0  0  0  0  0  0
   39.0050   64.8230   58.8280 C   0  0  0  0  0  0  0  0  0  0  0  0
   40.3440   64.1100   58.7160 C   0  0  0  0  0  0  0  0  0  0  0  0
   41.5130   65.0500   58.4160 C   0  0  0  0  0  0  0  0  0  0  0  0
   40.6490   63.2920   59.9710 C   0  0  0  0  0  0  0  0  0  0  0  0
   40.1780   63.2060   57.6180 O   0  0  0  0  0  0  0  0  0  0  0  0
   39.1080   63.5660   56.8490 C   0  0  0  0  0  0  0  0  0  0  0  0
   38.7870   62.9670   55.8350 O   0  0  0  0  0  0  0  0  0  0  0  0
   39.6720   67.3530   54.3690 C   0  0  0  0  0  0  0  0  0  0  0  0
   39.9620   67.7570   52.9270 C   0  0  0  0  0  0  0  0  0  0  0  0
   39.1822   67.1348   48.4739 H   0  0  0  0  0  0  0  0  0  0  0  0
   38.3018   66.7065   46.9678 H   0  0  0  0  0  0  0  0  0  0  0  0
   40.0964   66.7848   46.9678 H   0  0  0  0  0  0  0  0  0  0  0  0
   39.6413   68.8410   46.0433 H   0  0  0  0  0  0  0  0  0  0  0  0
   38.0545   68.9813   46.9137 H   0  0  0  0  0  0  0  0  0  0  0  0
   40.6100   69.9690   47.7670 H   0  0  0  0  0  0  0  0  0  0  0  0
   40.7520   70.8320   49.6830 H   0  0  0  0  0  0  0  0  0  0  0  0
   37.4391   75.4823   52.2913 H   0  0  0  0  0  0  0  0  0  0  0  0
   37.0506   75.4537   54.7625 H   0  0  0  0  0  0  0  0  0  0  0  0
   37.7475   73.4931   56.1135 H   0  0  0  0  0  0  0  0  0  0  0  0
   38.8632   71.5510   55.0281 H   0  0  0  0  0  0  0  0  0  0  0  0
   37.5446   69.9863   53.1342 H   0  0  0  0  0  0  0  0  0  0  0  0
   37.4572   68.8738   51.6957 H   0  0  0  0  0  0  0  0  0  0  0  0
   36.3095   68.1438   53.9245 H   0  0  0  0  0  0  0  0  0  0  0  0
   37.3223   66.9599   53.0099 H   0  0  0  0  0  0  0  0  0  0  0  0
   38.2029   68.6424   55.3880 H   0  0  0  0  0  0  0  0  0  0  0  0
   36.2628   66.0645   54.4110 H   0  0  0  0  0  0  0  0  0  0  0  0
   37.6878   64.9638   54.5535 H   0  0  0  0  0  0  0  0  0  0  0  0
   35.2233   65.1756   56.2589 H   0  0  0  0  0  0  0  0  0  0  0  0
   36.1793   63.7217   55.6887 H   0  0  0  0  0  0  0  0  0  0  0  0
   36.4890   65.3954   58.1357 H   0  0  0  0  0  0  0  0  0  0  0  0
   36.7104   63.6059   57.8469 H   0  0  0  0  0  0  0  0  0  0  0  0
   39.2339   66.7975   57.2641 H   0  0  0  0  0  0  0  0  0  0  0  0
   39.5706   65.6841   55.8386 H   0  0  0  0  0  0  0  0  0  0  0  0
   39.1457   65.8584   59.1716 H   0  0  0  0  0  0  0  0  0  0  0  0
   38.3378   64.3380   59.5558 H   0  0  0  0  0  0  0  0  0  0  0  0
   41.9517   65.4028   59.3610 H   0  0  0  0  0  0  0  0  0  0  0  0
   42.2768   64.5117   57.8356 H   0  0  0  0  0  0  0  0  0  0  0  0
   41.1511   65.9115   57.8356 H   0  0  0  0  0  0  0  0  0  0  0  0
   40.4247   63.8935   60.8642 H   0  0  0  0  0  0  0  0  0  0  0  0
   40.0293   62.3832   59.9759 H   0  0  0  0  0  0  0  0  0  0  0  0
   41.7124   63.0107   59.9759 H   0  0  0  0  0  0  0  0  0  0  0  0
   40.3808   67.8780   55.0263 H   0  0  0  0  0  0  0  0  0  0  0  0
   39.7797   66.2597   54.4253 H   0  0  0  0  0  0  0  0  0  0  0  0
   41.0491   67.8597   52.7937 H   0  0  0  0  0  0  0  0  0  0  0  0
   39.5639   66.9798   52.2580 H   0  0  0  0  0  0  0  0  0  0  0  0
  1  2  1  0
  2  3  1  0
  3  4  1  0
  4  5  2  0
  4  6  1  0
  6  7  1  0
  7  8  1  0
  8  9  1  0
  9 10  2  0
 10 11  1  0
 11 12  2  0
 12 13  1  0
 13 14  2  0
 14 15  1  0
 15 16  1  0
 16 17  2  0
 16 18  1  0
 18 19  1  0
 19 20  1  0
 20 21  1  0
 21 22  1  0
 22 23  1  0
 23 24  1  0
 24 25  1  0
 26 25  1  1
 26 27  1  0
 26 28  1  0
 28 29  1  0
 29 30  1  0
 29 31  1  0
 29 32  1  0
 32 33  1  0
 33 34  2  0
 21 35  1  0
 35 36  1  0
 15  7  2  0
 36 18  1  0
 14  9  1  0
 27 22  1  0
 33 26  1  0
  1 37  1  0
  1 38  1  0
  1 39  1  0
  2 40  1  0
  2 41  1  0
  3 42  1  0
  6 43  1  0
 10 44  1  0
 11 45  1  0
 12 46  1  0
 13 47  1  0
 19 48  1  0
 19 49  1  0
 20 50  1  0
 20 51  1  0
 21 52  1  0
 23 53  1  0
 23 54  1  0
 24 55  1  0
 24 56  1  0
 25 57  1  0
 25 58  1  0
 27 59  1  0
 27 60  1  0
 28 61  1  0
 28 62  1  0
 30 63  1  0
 30 64  1  0
 30 65  1  0
 31 66  1  0
 31 67  1  0
 31 68  1  0
 35 69  1  0
 35 70  1  0
 36 71  1  0
 36 72  1  0
M  END
>  <meeko>  (20) 
{"is_sidechain": [false], "free_energy": -7.338, "intermolecular_energy": -8.807, "internal_energy": -1.447}

$$$$
