seed-1003
     RDKit          3D

 72 76  0  0  0  0  0  0  0  0999 V2000
   41.9000   61.7700   58.4120 C   0  0  0  0  0  0  0  0  0  0  0  0
   40.3950   61.7990   58.2180 C   0  0  0  0  0  0  0  0  0  0  0  0
   39.8960   63.1480   58.0500 N   0  0  0  0  0  0  0  0  0  0  0  0
   39.7110   63.6900   56.7880 C   0  0  0  0  0  0  0  0  0  0  0  0
   39.9060   63.0400   55.7710 O   0  0  0  0  0  0  0  0  0  0  0  0
   39.2930   65.0010   56.8860 N   0  0  0  0  0  0  0  0  0  0  0  0
   39.0010   65.8760   55.8500 C   0  0  0  0  0  0  0  0  0  0  0  0
   40.0410   67.1370   55.4230 S   0  0  0  0  0  0  0  0  0  0  0  0
   39.0800   67.5960   54.0780 C   0  0  0  0  0  0  0  0  0  0  0  0
   39.3630   68.6150   53.1470 C   0  0  0  0  0  0  0  0  0  0  0  0
   38.4790   68.8330   52.0890 C   0  0  0  0  0  0  0  0  0  0  0  0
   37.3420   68.0520   51.9530 C   0  0  0  0  0  0  0  0  0  0  0  0
   37.0630   67.0460   52.8840 C   0  0  0  0  0  0  0  0  0  0  0  0
   37.9280   66.8110   53.9850 C   0  0  0  0  0  0  0  0  0  0  0  0
   37.8500   65.8610   55.0790 C   0  0  0  0  0  0  0  0  0  0  0  0
   36.7600   64.9250   55.3510 C   0  0  0  0  0  0  0  0  0  0  0  0
   35.9020   65.2020   56.1890 O   0  0  0  0  0  0  0  0  0  0  0  0
   36.6890   63.7580   54.5830 N   0  0  0  0  0  0  0  0  0  0  0  0
   37.2830   63.6330   53.2510 C   0  0  0  0  0  0  0  0  0  0  0  0
   36.4020   62.8320   52.2830 C   0  0  0  0  0  0  0  0  0  0  0  0
   34.9110   63.1850   52.4750 C   0  0  0  0  0  0  0  0  0  0  0  0
   33.9870   62.5090   51.5220 N   0  0  0  0  0  0  0  0  0  0  0  0
   32.7690   63.3080   51.2960 C   0  0  0  0  0  0  0  0  0  0  0  0
   31.6990   62.4790   50.5840 C   0  0  0  0  0  0  0  0  0  0  0  0
   32.2610   61.4040   49.6560 C   0  0  0  0  0  0  0  0  0  0  0  0
   33.6500   61.7410   49.1050 C   0  0  1  0  0  0  0  0  0  0  0  0
   34.6210   62.2190   50.2140 C   0  0  0  0  0  0  0  0  0  0  0  0
   34.1990   60.5480   48.3120 C   0  0  0  0  0  0  0  0  0  0  0  0
   34.9690   61.1650   47.1550 C   0  0  0  0  0  0  0  0  0  0  0  0
   36.4470   61.4080   47.4650 C   0  0  0  0  0  0  0  0  0  0  0  0
   34.8400   60.3250   45.8850 C   0  0  0  0  0  0  0  0  0  0  0  0
   34.3260   62.4250   46.9290 O   0  0  0  0  0  0  0  0  0  0  0  0
   33.5780   62.7900   48.0110 C   0  0  0  0  0  0  0  0  0  0  0  0
   32.9640   63.8440   48.0680 O   0  0  0  0  0  0  0  0  0  0  0  0
   34.4950   62.8710   53.9410 C   0  0  0  0  0  0  0  0  0  0  0  0
   35.6740   62.7720   54.9030 C   0  0  0  0  0  0  0  0  0  0  0  0
   42.1310   61.7655   59.4875 H   0  0  0  0  0  0  0  0  0  0  0  0
   42.3126   60.8637   57.9446 H   0  0  0  0  0  0  0  0  0  0  0  0
   42.3472   62.6597   57.9446 H   0  0  0  0  0  0  0  0  0  0  0  0
   40.1408   61.2122   57.3230 H   0  0  0  0  0  0  0  0  0  0  0  0
   39.9279   61.3734   59.1184 H   0  0  0  0  0  0  0  0  0  0  0  0
   40.0570   63.7950   58.8070 H   0  0  0  0  0  0  0  0  0  0  0  0
   38.9870   65.3050   57.8030 H   0  0  0  0  0  0  0  0  0  0  0  0
   40.2685   69.2305   53.2525 H   0  0  0  0  0  0  0  0  0  0  0  0
   38.6859   69.6293   51.3589 H   0  0  0  0  0  0  0  0  0  0  0  0
   36.6566   68.2239   51.1100 H   0  0  0  0  0  0  0  0  0  0  0  0
   36.1610   66.4285   52.7614 H   0  0  0  0  0  0  0  0  0  0  0  0
   37.4345   64.6409   52.8371 H   0  0  0  0  0  0  0  0  0  0  0  0
   38.2341   63.0913   53.3606 H   0  0  0  0  0  0  0  0  0  0  0  0
   36.6974   63.0659   51.2495 H   0  0  0  0  0  0  0  0  0  0  0  0
   36.5388   61.7600   52.4882 H   0  0  0  0  0  0  0  0  0  0  0  0
   34.8164   64.2593   52.2586 H   0  0  0  0  0  0  0  0  0  0  0  0
   32.3758   63.6479   52.2655 H   0  0  0  0  0  0  0  0  0  0  0  0
   33.0257   64.1702   50.6629 H   0  0  0  0  0  0  0  0  0  0  0  0
   31.0781   61.9870   51.3471 H   0  0  0  0  0  0  0  0  0  0  0  0
   31.1247   63.1743   49.9542 H   0  0  0  0  0  0  0  0  0  0  0  0
   32.3279   60.4599   50.2165 H   0  0  0  0  0  0  0  0  0  0  0  0
   31.5798   61.3295   48.7955 H   0  0  0  0  0  0  0  0  0  0  0  0
   35.3759   61.4338   50.3677 H   0  0  0  0  0  0  0  0  0  0  0  0
   35.0448   63.1707   49.8610 H   0  0  0  0  0  0  0  0  0  0  0  0
   34.8668   59.9404   48.9405 H   0  0  0  0  0  0  0  0  0  0  0  0
   33.3979   59.8789   47.9649 H   0  0  0  0  0  0  0  0  0  0  0  0
   36.5939   61.4322   48.5549 H   0  0  0  0  0  0  0  0  0  0  0  0
   37.0507   60.5971   47.0315 H   0  0  0  0  0  0  0  0  0  0  0  0
   36.7593   62.3695   47.0315 H   0  0  0  0  0  0  0  0  0  0  0  0
   34.6782   59.2715   46.1570 H   0  0  0  0  0  0  0  0  0  0  0  0
   33.9867   60.6857   45.2919 H   0  0  0  0  0  0  0  0  0  0  0  0
   35.7622   60.4131   45.2919 H   0  0  0  0  0  0  0  0  0  0  0  0
   33.8265   63.6711   54.2916 H   0  0  0  0  0  0  0  0  0  0  0  0
   34.0025   61.8875   53.9326 H   0  0  0  0  0  0  0  0  0  0  0  0
   35.3166   62.9433   55.9291 H   0  0  0  0  0  0  0  0  0  0  0  0
   36.1177   61.7695   54.8123 H   0  0  0  0  0  0  0  0  0  0  0  0
  1  2  1  0
  2  3  1  0
  3  4  1  0
  4  5  2  0
  4  6  1  0
  6  7  1  0
  7  8  1  0
  8  9  1  0
  9 10  2  0
 10 11  1  0
 11 12  2  0
 12 13  1  0
 13 14  2  0
 14 15  1  0
 15 16  1  0
 16 17  2  0
 16 18  1  0
 18 19  1  0
 19 20  1  0
 20 21  1  0
 21 22  1  0
 22 23  1  0
 23 24  1  0
 24 25  1  0
 26 25  1  1
 26 27  1  0
 26 28  1  0
 28 29  1  0
 29 30  1  0
 29 31  1  0
 29 32  1  0
 32 33  1  0
 33 34  2  0
 21 35  1  0
 35 36  1  0
 15  7  2  0
 36 18  1  0
 14  9  1  0
 27 22  1  0
 33 26  1  0
  1 37  1  0
  1 38  1  0
  1 39  1  0
  2 40  1  0
  2 41  1  0
  3 42  1  0
  6 43  1  0
 10 44  1  0
 11 45  1  0
 12 46  1  0
 13 47  1  0
 19 48  1  0
 19 49  1  0
 20 50  1  0
 20 51  1  0
 21 52  1  0
 23 53  1  0
 23 54  1  0
 24 55  1  0
 24 56  1  0
 25 57  1  0
 25 58  1  0
 27 59  1  0
 27 60  1  0
 28 61  1  0
 28 62  1  0
 30 63  1  0
 30 64  1  0
 30 65  1  0
 31 66  1  0
 31 67  1  0
 31 68  1  0
 35 69  1  0
 35 70  1  0
 36 71  1  0
 36 72  1  0
M  END
>  <meeko>  (1) 
{"is_sidechain": [false], "free_energy": -10.332, "intermolecular_energy": -12.748, "internal_energy": -1.189}

$$$$
seed-1003
     RDKit          3D

 72 76  0  0  0  0  0  0  0  0999 V2000
   40.9750   61.4370   60.0260 C   0  0  0  0  0  0  0  0  0  0  0  0
   39.5490   61.4990   59.5080 C   0  0  0  0  0  0  0  0  0  0  0  0
   39.4790   62.0720   58.1800 N   0  0  0  0  0  0  0  0  0  0  0  0
   39.2510   63.4270   57.9970 C   0  0  0  0  0  0  0  0  0  0  0  0
   39.1550   64.1980   58.9410 O   0  0  0  0  0  0  0  0  0  0  0  0
   39.1630   63.7210   56.6530 N   0  0  0  0  0  0  0  0  0  0  0  0
   38.9450   64.9600   56.0700 C   0  0  0  0  0  0  0  0  0  0  0  0
   40.1530   66.1400   55.9980 S   0  0  0  0  0  0  0  0  0  0  0  0
   39.1810   67.2090   55.0730 C   0  0  0  0  0  0  0  0  0  0  0  0
   39.5630   68.4640   54.5580 C   0  0  0  0  0  0  0  0  0  0  0  0
   38.6470   69.1910   53.7950 C   0  0  0  0  0  0  0  0  0  0  0  0
   37.3820   68.6820   53.5440 C   0  0  0  0  0  0  0  0  0  0  0  0
   37.0070   67.4390   54.0650 C   0  0  0  0  0  0  0  0  0  0  0  0
   37.9050   66.6810   54.8620 C   0  0  0  0  0  0  0  0  0  0  0  0
   37.7500   65.4000   55.5230 C   0  0  0  0  0  0  0  0  0  0  0  0
   36.5380   64.5830   55.5820 C   0  0  0  0  0  0  0  0  0  0  0  0
   35.7460   64.7190   56.5140 O   0  0  0  0  0  0  0  0  0  0  0  0
   36.2800   63.7130   54.5180 N   0  0  0  0  0  0  0  0  0  0  0  0
   36.8250   63.9010   53.1730 C   0  0  0  0  0  0  0  0  0  0  0  0
   35.8170   63.5460   52.0710 C   0  0  0  0  0  0  0  0  0  0  0  0
   34.3990   64.0290   52.4460 C   0  0  0  0  0  0  0  0  0  0  0  0
   33.3680   63.7940   51.3980 N   0  0  0  0  0  0  0  0  0  0  0  0
   33.9840   63.4300   50.1080 C   0  0  0  0  0  0  0  0  0  0  0  0
   32.9610   63.5050   48.9750 C   0  0  0  0  0  0  0  0  0  0  0  0
   31.5280   63.2020   49.4110 C   0  0  0  0  0  0  0  0  0  0  0  0
   31.4450   62.2870   50.6370 C   0  0  1  0  0  0  0  0  0  0  0  0
   32.3910   62.7460   51.7750 C   0  0  0  0  0  0  0  0  0  0  0  0
   29.9860   62.1620   51.0950 C   0  0  0  0  0  0  0  0  0  0  0  0
   29.8470   60.7260   51.5760 C   0  0  0  0  0  0  0  0  0  0  0  0
   30.1410   60.5510   53.0680 C   0  0  0  0  0  0  0  0  0  0  0  0
   28.4650   60.1570   51.2530 C   0  0  0  0  0  0  0  0  0  0  0  0
   30.8220   59.9990   50.8200 O   0  0  0  0  0  0  0  0  0  0  0  0
   31.7480   60.8440   50.2800 C   0  0  0  0  0  0  0  0  0  0  0  0
   32.6990   60.4540   49.6220 O   0  0  0  0  0  0  0  0  0  0  0  0
   33.9680   63.3620   53.7830 C   0  0  0  0  0  0  0  0  0  0  0  0
   35.1360   62.8250   54.6040 C   0  0  0  0  0  0  0  0  0  0  0  0
   40.9659   61.4374   61.1260 H   0  0  0  0  0  0  0  0  0  0  0  0
   41.4571   60.5170   59.6636 H   0  0  0  0  0  0  0  0  0  0  0  0
   41.5351   62.3116   59.6636 H   0  0  0  0  0  0  0  0  0  0  0  0
   39.1377   60.4793   59.4770 H   0  0  0  0  0  0  0  0  0  0  0  0
   38.9686   62.1415   60.1864 H   0  0  0  0  0  0  0  0  0  0  0  0
   39.2100   61.4570   57.4280 H   0  0  0  0  0  0  0  0  0  0  0  0
   39.4740   62.9960   56.0150 H   0  0  0  0  0  0  0  0  0  0  0  0
   40.5683   68.8651   54.7543 H   0  0  0  0  0  0  0  0  0  0  0  0
   38.9308   70.1738   53.3905 H   0  0  0  0  0  0  0  0  0  0  0  0
   36.6709   69.2575   52.9332 H   0  0  0  0  0  0  0  0  0  0  0  0
   36.0025   67.0433   53.8543 H   0  0  0  0  0  0  0  0  0  0  0  0
   37.1179   64.9548   53.0560 H   0  0  0  0  0  0  0  0  0  0  0  0
   37.6864   63.2254   53.0659 H   0  0  0  0  0  0  0  0  0  0  0  0
   36.1253   64.0284   51.1317 H   0  0  0  0  0  0  0  0  0  0  0  0
   35.7963   62.4526   51.9521 H   0  0  0  0  0  0  0  0  0  0  0  0
   34.4615   65.1221   52.5517 H   0  0  0  0  0  0  0  0  0  0  0  0
   34.8097   64.1247   49.8944 H   0  0  0  0  0  0  0  0  0  0  0  0
   34.3583   62.3979   50.1760 H   0  0  0  0  0  0  0  0  0  0  0  0
   32.9867   64.5202   48.5523 H   0  0  0  0  0  0  0  0  0  0  0  0
   33.2406   62.7340   48.2419 H   0  0  0  0  0  0  0  0  0  0  0  0
   31.0283   64.1522   49.6507 H   0  0  0  0  0  0  0  0  0  0  0  0
   31.0403   62.6739   48.5784 H   0  0  0  0  0  0  0  0  0  0  0  0
   31.7716   63.1373   52.5955 H   0  0  0  0  0  0  0  0  0  0  0  0
   32.9834   61.8624   52.0550 H   0  0  0  0  0  0  0  0  0  0  0  0
   29.7759   62.8661   51.9136 H   0  0  0  0  0  0  0  0  0  0  0  0
   29.2774   62.3980   50.2874 H   0  0  0  0  0  0  0  0  0  0  0  0
   29.3428   61.0261   53.6572 H   0  0  0  0  0  0  0  0  0  0  0  0
   30.1863   59.4788   53.3095 H   0  0  0  0  0  0  0  0  0  0  0  0
   31.1051   61.0223   53.3095 H   0  0  0  0  0  0  0  0  0  0  0  0
   27.9310   59.9372   52.1892 H   0  0  0  0  0  0  0  0  0  0  0  0
   27.8929   60.8928   50.6687 H   0  0  0  0  0  0  0  0  0  0  0  0
   28.5768   59.2318   50.6687 H   0  0  0  0  0  0  0  0  0  0  0  0
   33.4330   64.1093   54.3874 H   0  0  0  0  0  0  0  0  0  0  0  0
   33.3344   62.5011   53.5235 H   0  0  0  0  0  0  0  0  0  0  0  0
   34.8266   62.7369   55.6559 H   0  0  0  0  0  0  0  0  0  0  0  0
   35.4236   61.8412   54.2048 H   0  0  0  0  0  0  0  0  0  0  0  0
  1  2  1  0
  2  3  1  0
  3  4  1  0
  4  5  2  0
  4  6  1  0
  6  7  1  0
  7  8  1  0
  8  9  1  0
  9 10  2  0
 10 11  1  0
 11 12  2  0
 12 13  1  0
 13 14  2  0
 14 15  1  0
 15 16  1  0
 16 17  2  0
 16 18  1  0
 18 19  1  0
 19 20  1  0
 20 21  1  0
 21 22  1  0
 22 23  1  0
 23 24  1  0
 24 25  1  0
 26 25  1  6
 26 27  1  0
 26 28  1  0
 28 29  1  0
 29 30  1  0
 29 31  1  0
 29 32  1  0
 32 33  1  0
 33 34  2  0
 21 35  1  0
 35 36  1  0
 15  7  2  0
 36 18  1  0
 14  9  1  0
 27 22  1  0
 33 26  1  0
  1 37  1  0
  1 38  1  0
  1 39  1  0
  2 40  1  0
  2 41  1  0
  3 42  1  0
  6 43  1  0
 10 44  1  0
 11 45  1  0
 12 46  1  0
 13 47  1  0
 19 48  1  0
 19 49  1  0
 20 50  1  0
 20 51  1  0
 21 52  1  0
 23 53  1  0
 23 54  1  0
 24 55  1  0
 24 56  1  0
 25 57  1  0
 25 58  1  0
 27 59  1  0
 27 60  1  0
 28 61  1  0
 28 62  1  0
 30 63  1  0
 30 64  1  0
 30 65  1  0
 31 66  1  0
 31 67  1  0
 31 68  1  0
 35 69  1  0
 35 70  1  0
 36 71  1  0
 36 72  1  0
M  END
>  <meeko>  (2) 
{"is_sidechain": [false], "free_energy": -9.863, "intermolecular_energy": -12.058, "internal_energy": -1.3}

$$$$
seed-1003
     RDKit          3D

 72 76  0  0  0  0  0  0  0  0999 V2000
   38.5150   70.2970   49.3290 C   0  0  0  0  0  0  0  0  0  0  0  0
   38.1370   70.2670   50.7980 C   0  0  0  0  0  0  0  0  0  0  0  0
   38.1030   68.9170   51.3220 N   0  0  0  0  0  0  0  0  0  0  0  0
   38.3920   68.6590   52.6520 C   0  0  0  0  0  0  0  0  0  0  0  0
   38.6310   69.5570   53.4470 O   0  0  0  0  0  0  0  0  0  0  0  0
   38.3580   67.3020   52.8960 N   0  0  0  0  0  0  0  0  0  0  0  0
   38.5870   66.6520   54.0990 C   0  0  0  0  0  0  0  0  0  0  0  0
   40.1490   66.3370   54.6620 S   0  0  0  0  0  0  0  0  0  0  0  0
   39.5820   65.6950   56.1490 C   0  0  0  0  0  0  0  0  0  0  0  0
   40.3690   65.2400   57.2250 C   0  0  0  0  0  0  0  0  0  0  0  0
   39.7350   64.7760   58.3800 C   0  0  0  0  0  0  0  0  0  0  0  0
   38.3520   64.7680   58.4660 C   0  0  0  0  0  0  0  0  0  0  0  0
   37.5770   65.2150   57.3910 C   0  0  0  0  0  0  0  0  0  0  0  0
   38.1860   65.6750   56.1930 C   0  0  0  0  0  0  0  0  0  0  0  0
   37.6130   66.1590   54.9520 C   0  0  0  0  0  0  0  0  0  0  0  0
   36.1930   66.2190   54.6050 C   0  0  0  0  0  0  0  0  0  0  0  0
   35.6910   67.2820   54.2410 O   0  0  0  0  0  0  0  0  0  0  0  0
   35.4610   65.0280   54.6300 N   0  0  0  0  0  0  0  0  0  0  0  0
   36.0690   63.7050   54.4860 C   0  0  0  0  0  0  0  0  0  0  0  0
   35.2160   62.7500   53.6390 C   0  0  0  0  0  0  0  0  0  0  0  0
   34.5930   63.4910   52.4360 C   0  0  0  0  0  0  0  0  0  0  0  0
   33.8090   62.6220   51.5130 N   0  0  0  0  0  0  0  0  0  0  0  0
   32.4970   63.2160   51.2000 C   0  0  0  0  0  0  0  0  0  0  0  0
   31.5830   62.1920   50.5270 C   0  0  0  0  0  0  0  0  0  0  0  0
   32.3260   61.1490   49.6930 C   0  0  0  0  0  0  0  0  0  0  0  0
   33.6690   61.6480   49.1520 C   0  0  1  0  0  0  0  0  0  0  0  0
   34.5220   62.3380   50.2450 C   0  0  0  0  0  0  0  0  0  0  0  0
   34.4120   60.4950   48.4620 C   0  0  0  0  0  0  0  0  0  0  0  0
   35.1230   61.1370   47.2810 C   0  0  0  0  0  0  0  0  0  0  0  0
   36.5390   61.6150   47.6070 C   0  0  0  0  0  0  0  0  0  0  0  0
   35.1610   60.2010   46.0740 C   0  0  0  0  0  0  0  0  0  0  0  0
   34.3130   62.2700   46.9480 O   0  0  0  0  0  0  0  0  0  0  0  0
   33.4840   62.5960   47.9820 C   0  0  0  0  0  0  0  0  0  0  0  0
   32.7220   63.5490   47.9470 O   0  0  0  0  0  0  0  0  0  0  0  0
   33.7080   64.6590   52.9550 C   0  0  0  0  0  0  0  0  0  0  0  0
   34.0320   65.0830   54.3840 C   0  0  0  0  0  0  0  0  0  0  0  0
   39.6074   70.3837   49.2332 H   0  0  0  0  0  0  0  0  0  0  0  0
   38.1769   69.3692   48.8444 H   0  0  0  0  0  0  0  0  0  0  0  0
   38.0348   71.1599   48.8444 H   0  0  0  0  0  0  0  0  0  0  0  0
   38.8760   70.8503   51.3669 H   0  0  0  0  0  0  0  0  0  0  0  0
   37.1291   70.6959   50.8984 H   0  0  0  0  0  0  0  0  0  0  0  0
   38.2560   68.1660   50.6660 H   0  0  0  0  0  0  0  0  0  0  0  0
   37.9400   66.7280   52.1720 H   0  0  0  0  0  0  0  0  0  0  0  0
   41.4668   65.2499   57.1567 H   0  0  0  0  0  0  0  0  0  0  0  0
   40.3374   64.4147   59.2265 H   0  0  0  0  0  0  0  0  0  0  0  0
   37.8620   64.4088   59.3830 H   0  0  0  0  0  0  0  0  0  0  0  0
   36.4802   65.2103   57.4744 H   0  0  0  0  0  0  0  0  0  0  0  0
   37.0516   63.8197   54.0050 H   0  0  0  0  0  0  0  0  0  0  0  0
   36.1570   63.2685   55.4918 H   0  0  0  0  0  0  0  0  0  0  0  0
   35.8510   61.9316   53.2688 H   0  0  0  0  0  0  0  0  0  0  0  0
   34.4047   62.3519   54.2662 H   0  0  0  0  0  0  0  0  0  0  0  0
   35.4337   63.8696   51.8361 H   0  0  0  0  0  0  0  0  0  0  0  0
   32.0262   63.5617   52.1321 H   0  0  0  0  0  0  0  0  0  0  0  0
   32.6479   64.0599   50.5108 H   0  0  0  0  0  0  0  0  0  0  0  0
   31.0149   61.6681   51.3099 H   0  0  0  0  0  0  0  0  0  0  0  0
   30.9351   62.7500   49.8351 H   0  0  0  0  0  0  0  0  0  0  0  0
   32.5100   60.2658   50.3223 H   0  0  0  0  0  0  0  0  0  0  0  0
   31.6923   60.9157   48.8247 H   0  0  0  0  0  0  0  0  0  0  0  0
   35.3766   61.6842   50.4736 H   0  0  0  0  0  0  0  0  0  0  0  0
   34.8156   63.3149   49.8332 H   0  0  0  0  0  0  0  0  0  0  0  0
   35.1391   60.0374   49.1490 H   0  0  0  0  0  0  0  0  0  0  0  0
   33.7287   59.6926   48.1469 H   0  0  0  0  0  0  0  0  0  0  0  0
   36.6690   61.6589   48.6984 H   0  0  0  0  0  0  0  0  0  0  0  0
   37.2704   60.9140   47.1785 H   0  0  0  0  0  0  0  0  0  0  0  0
   36.6959   62.6159   47.1785 H   0  0  0  0  0  0  0  0  0  0  0  0
   35.2034   59.1578   46.4202 H   0  0  0  0  0  0  0  0  0  0  0  0
   34.2561   60.3492   45.4664 H   0  0  0  0  0  0  0  0  0  0  0  0
   36.0509   60.4221   45.4664 H   0  0  0  0  0  0  0  0  0  0  0  0
   33.8536   65.5259   52.2937 H   0  0  0  0  0  0  0  0  0  0  0  0
   32.6679   64.3009   52.9530 H   0  0  0  0  0  0  0  0  0  0  0  0
   33.6788   66.1126   54.5429 H   0  0  0  0  0  0  0  0  0  0  0  0
   33.5296   64.3926   55.0775 H   0  0  0  0  0  0  0  0  0  0  0  0
  1  2  1  0
  2  3  1  0
  3  4  1  0
  4  5  2  0
  4  6  1  0
  6  7  1  0
  7  8  1  0
  8  9  1  0
  9 10  2  0
 10 11  1  0
 11 12  2  0
 12 13  1  0
 13 14  2  0
 14 15  1  0
 15 16  1  0
 16 17  2  0
 16 18  1  0
 18 19  1  0
 19 20  1  0
 20 21  1  0
 21 22  1  0
 22 23  1  0
 23 24  1  0
 24 25  1  0
 26 25  1  1
 26 27  1  0
 26 28  1  0
 28 29  1  0
 29 30  1  0
 29 31  1  0
 29 32  1  0
 32 33  1  0
 33 34  2  0
 21 35  1  0
 35 36  1  0
 15  7  2  0
 36 18  1  0
 14  9  1  0
 27 22  1  0
 33 26  1  0
  1 37  1  0
  1 38  1  0
  1 39  1  0
  2 40  1  0
  2 41  1  0
  3 42  1  0
  6 43  1  0
 10 44  1  0
 11 45  1  0
 12 46  1  0
 13 47  1  0
 19 48  1  0
 19 49  1  0
 20 50  1  0
 20 51  1  0
 21 52  1  0
 23 53  1  0
 23 54  1  0
 24 55  1  0
 24 56  1  0
 25 57  1  0
 25 58  1  0
 27 59  1  0
 27 60  1  0
 28 61  1  0
 28 62  1  0
 30 63  1  0
 30 64  1  0
 30 65  1  0
 31 66  1  0
 31 67  1  0
 31 68  1  0
 35 69  1  0
 35 70  1  0
 36 71  1  0
 36 72  1  0
M  END
>  <meeko>  (3) 
{"is_sidechain": [false], "free_energy": -9.804, "intermolecular_energy": -12.078, "internal_energy": -1.208}

$$$$
seed-1003
     RDKit          3D

 72 76  0  0  0  0  0  0  0  0999 V2000
   27.8650   59.0850   53.5470 C   0  0  0  0  0  0  0  0  0  0  0  0
   28.1770   59.1000   52.0610 C   0  0  0  0  0  0  0  0  0  0  0  0
   29.5680   59.4120   51.8030 N   0  0  0  0  0  0  0  0  0  0  0  0
   30.1230   59.2160   50.5490 C   0  0  0  0  0  0  0  0  0  0  0  0
   29.4560   58.8280   49.6000 O   0  0  0  0  0  0  0  0  0  0  0  0
   31.4680   59.5220   50.5670 N   0  0  0  0  0  0  0  0  0  0  0  0
   32.3650   59.4570   49.5110 C   0  0  0  0  0  0  0  0  0  0  0  0
   32.8690   57.9830   48.8550 S   0  0  0  0  0  0  0  0  0  0  0  0
   33.7760   58.7430   47.6120 C   0  0  0  0  0  0  0  0  0  0  0  0
   34.4850   58.1050   46.5750 C   0  0  0  0  0  0  0  0  0  0  0  0
   35.1470   58.8860   45.6250 C   0  0  0  0  0  0  0  0  0  0  0  0
   35.1020   60.2700   45.7000 C   0  0  0  0  0  0  0  0  0  0  0  0
   34.4030   60.8970   46.7370 C   0  0  0  0  0  0  0  0  0  0  0  0
   33.7350   60.1350   47.7320 C   0  0  0  0  0  0  0  0  0  0  0  0
   32.9750   60.5390   48.8990 C   0  0  0  0  0  0  0  0  0  0  0  0
   32.7720   61.9050   49.3840 C   0  0  0  0  0  0  0  0  0  0  0  0
   31.6350   62.3660   49.4740 O   0  0  0  0  0  0  0  0  0  0  0  0
   33.8940   62.6250   49.8050 N   0  0  0  0  0  0  0  0  0  0  0  0
   35.1330   61.9930   50.2600 C   0  0  0  0  0  0  0  0  0  0  0  0
   35.7680   62.7240   51.4510 C   0  0  0  0  0  0  0  0  0  0  0  0
   34.6860   63.1960   52.4460 C   0  0  0  0  0  0  0  0  0  0  0  0
   35.2190   63.8500   53.6740 N   0  0  0  0  0  0  0  0  0  0  0  0
   35.8990   62.8780   54.5500 C   0  0  0  0  0  0  0  0  0  0  0  0
   36.1550   63.4780   55.9330 C   0  0  0  0  0  0  0  0  0  0  0  0
   36.3660   64.9910   55.9250 C   0  0  0  0  0  0  0  0  0  0  0  0
   36.9220   65.5210   54.5990 C   0  0  1  0  0  0  0  0  0  0  0  0
   36.1520   64.9630   53.3760 C   0  0  0  0  0  0  0  0  0  0  0  0
   36.9570   67.0550   54.6260 C   0  0  0  0  0  0  0  0  0  0  0  0
   38.2150   67.4320   53.8590 C   0  0  0  0  0  0  0  0  0  0  0  0
   37.9780   67.6440   52.3630 C   0  0  0  0  0  0  0  0  0  0  0  0
   38.8830   68.6710   54.4550 C   0  0  0  0  0  0  0  0  0  0  0  0
   39.0930   66.3160   54.0390 O   0  0  0  0  0  0  0  0  0  0  0  0
   38.4000   65.2130   54.4490 C   0  0  0  0  0  0  0  0  0  0  0  0
   38.9280   64.1290   54.6360 O   0  0  0  0  0  0  0  0  0  0  0  0
   33.6980   64.1490   51.7160 C   0  0  0  0  0  0  0  0  0  0  0  0
   33.7260   64.0120   50.1970 C   0  0  0  0  0  0  0  0  0  0  0  0
   28.8034   59.1301   54.1192 H   0  0  0  0  0  0  0  0  0  0  0  0
   27.2397   59.9541   53.7992 H   0  0  0  0  0  0  0  0  0  0  0  0
   27.3259   58.1599   53.7992 H   0  0  0  0  0  0  0  0  0  0  0  0
   27.9511   58.1090   51.6404 H   0  0  0  0  0  0  0  0  0  0  0  0
   27.5603   59.8806   51.5916 H   0  0  0  0  0  0  0  0  0  0  0  0
   30.1970   59.3910   52.5910 H   0  0  0  0  0  0  0  0  0  0  0  0
   31.8020   60.0230   51.3820 H   0  0  0  0  0  0  0  0  0  0  0  0
   34.5167   57.0071   46.5144 H   0  0  0  0  0  0  0  0  0  0  0  0
   35.7074   58.4004   44.8125 H   0  0  0  0  0  0  0  0  0  0  0  0
   35.6178   60.8770   44.9414 H   0  0  0  0  0  0  0  0  0  0  0  0
   34.3703   61.9956   46.7823 H   0  0  0  0  0  0  0  0  0  0  0  0
   34.9107   60.9583   50.5600 H   0  0  0  0  0  0  0  0  0  0  0  0
   35.8502   62.0297   49.4268 H   0  0  0  0  0  0  0  0  0  0  0  0
   36.4586   62.0406   51.9668 H   0  0  0  0  0  0  0  0  0  0  0  0
   36.3095   63.6048   51.0756 H   0  0  0  0  0  0  0  0  0  0  0  0
   34.1720   62.2895   52.7981 H   0  0  0  0  0  0  0  0  0  0  0  0
   35.2664   61.9844   54.6563 H   0  0  0  0  0  0  0  0  0  0  0  0
   36.8655   62.6119   54.0972 H   0  0  0  0  0  0  0  0  0  0  0  0
   35.2893   63.2530   56.5732 H   0  0  0  0  0  0  0  0  0  0  0  0
   37.0869   63.0289   56.3070 H   0  0  0  0  0  0  0  0  0  0  0  0
   35.3991   65.4789   56.1175 H   0  0  0  0  0  0  0  0  0  0  0  0
   37.1092   65.2193   56.7031 H   0  0  0  0  0  0  0  0  0  0  0  0
   35.5706   65.7861   52.9350 H   0  0  0  0  0  0  0  0  0  0  0  0
   36.9131   64.5510   52.6970 H   0  0  0  0  0  0  0  0  0  0  0  0
   36.0651   67.4710   54.1347 H   0  0  0  0  0  0  0  0  0  0  0  0
   36.9639   67.4508   55.6523 H   0  0  0  0  0  0  0  0  0  0  0  0
   37.1651   68.3711   52.2200 H   0  0  0  0  0  0  0  0  0  0  0  0
   38.8980   68.0261   51.8965 H   0  0  0  0  0  0  0  0  0  0  0  0
   37.7004   66.6873   51.8965 H   0  0  0  0  0  0  0  0  0  0  0  0
   38.8513   68.6123   55.5530 H   0  0  0  0  0  0  0  0  0  0  0  0
   39.9298   68.7199   54.1205 H   0  0  0  0  0  0  0  0  0  0  0  0
   38.3486   69.5724   54.1205 H   0  0  0  0  0  0  0  0  0  0  0  0
   32.6790   63.9279   52.0662 H   0  0  0  0  0  0  0  0  0  0  0  0
   34.0082   65.1775   51.9526 H   0  0  0  0  0  0  0  0  0  0  0  0
   32.7796   64.3909   49.7837 H   0  0  0  0  0  0  0  0  0  0  0  0
   34.5752   64.5926   49.8074 H   0  0  0  0  0  0  0  0  0  0  0  0
  1  2  1  0
  2  3  1  0
  3  4  1  0
  4  5  2  0
  4  6  1  0
  6  7  1  0
  7  8  1  0
  8  9  1  0
  9 10  2  0
 10 11  1  0
 11 12  2  0
 12 13  1  0
 13 14  2  0
 14 15  1  0
 15 16  1  0
 16 17  2  0
 16 18  1  0
 18 19  1  0
 19 20  1  0
 20 21  1  0
 21 22  1  0
 22 23  1  0
 23 24  1  0
 24 25  1  0
 26 25  1  1
 26 27  1  0
 26 28  1  0
 28 29  1  0
 29 30  1  0
 29 31  1  0
 29 32  1  0
 32 33  1  0
 33 34  2  0
 21 35  1  0
 35 36  1  0
 15  7  2  0
 36 18  1  0
 14  9  1  0
 27 22  1  0
 33 26  1  0
  1 37  1  0
  1 38  1  0
  1 39  1  0
  2 40  1  0
  2 41  1  0
  3 42  1  0
  6 43  1  0
 10 44  1  0
 11 45  1  0
 12 46  1  0
 13 47  1  0
 19 48  1  0
 19 49  1  0
 20 50  1  0
 20 51  1  0
 21 52  1  0
 23 53  1  0
 23 54  1  0
 24 55  1  0
 24 56  1  0
 25 57  1  0
 25 58  1  0
 27 59  1  0
 27 60  1  0
 28 61  1  0
 28 62  1  0
 30 63  1  0
 30 64  1  0
 30 65  1  0
 31 66  1  0
 31 67  1  0
 31 68  1  0
 35 69  1  0
 35 70  1  0
 36 71  1  0
 36 72  1  0
M  END
>  <meeko>  (4) 
{"is_sidechain": [false], "free_energy": -9.411, "intermolecular_energy": -11.467, "internal_energy": -1.334}

$$$$
seed-1003
     RDKit          3D

 72 76  0  0  0  0  0  0  0  0999 V2000
   28.8730   59.2170   53.1700 C   0  0  0  0  0  0  0  0  0  0  0  0
   28.8880   60.1590   51.9800 C   0  0  0  0  0  0  0  0  0  0  0  0
   30.2340   60.4180   51.5120 N   0  0  0  0  0  0  0  0  0  0  0  0
   30.7170   59.8220   50.3580 C   0  0  0  0  0  0  0  0  0  0  0  0
   30.0160   59.1010   49.6620 O   0  0  0  0  0  0  0  0  0  0  0  0
   32.0360   60.1690   50.1540 N   0  0  0  0  0  0  0  0  0  0  0  0
   32.8630   59.7790   49.1120 C   0  0  0  0  0  0  0  0  0  0  0  0
   33.0680   58.1540   48.6940 S   0  0  0  0  0  0  0  0  0  0  0  0
   34.0450   58.5330   47.3350 C   0  0  0  0  0  0  0  0  0  0  0  0
   34.5850   57.6230   46.4050 C   0  0  0  0  0  0  0  0  0  0  0  0
   35.3370   58.1130   45.3340 C   0  0  0  0  0  0  0  0  0  0  0  0
   35.5420   59.4760   45.1880 C   0  0  0  0  0  0  0  0  0  0  0  0
   35.0100   60.3730   46.1180 C   0  0  0  0  0  0  0  0  0  0  0  0
   34.2580   59.9100   47.2310 C   0  0  0  0  0  0  0  0  0  0  0  0
   33.6300   60.6230   48.3270 C   0  0  0  0  0  0  0  0  0  0  0  0
   33.6950   62.0610   48.5890 C   0  0  0  0  0  0  0  0  0  0  0  0
   32.7610   62.7920   48.2590 O   0  0  0  0  0  0  0  0  0  0  0  0
   34.8030   62.5520   49.2860 N   0  0  0  0  0  0  0  0  0  0  0  0
   35.6230   61.7310   50.1780 C   0  0  0  0  0  0  0  0  0  0  0  0
   36.0670   62.4880   51.4380 C   0  0  0  0  0  0  0  0  0  0  0  0
   34.9250   63.3770   51.9760 C   0  0  0  0  0  0  0  0  0  0  0  0
   35.2420   64.0920   53.2440 N   0  0  0  0  0  0  0  0  0  0  0  0
   34.2680   63.7690   54.3020 C   0  0  0  0  0  0  0  0  0  0  0  0
   34.4040   64.7330   55.4800 C   0  0  0  0  0  0  0  0  0  0  0  0
   35.8210   65.2650   55.6880 C   0  0  0  0  0  0  0  0  0  0  0  0
   36.9090   64.3160   55.1720 C   0  0  1  0  0  0  0  0  0  0  0  0
   36.6070   63.8000   53.7430 C   0  0  0  0  0  0  0  0  0  0  0  0
   38.2820   64.9920   55.2800 C   0  0  0  0  0  0  0  0  0  0  0  0
   39.2430   63.8720   55.6500 C   0  0  0  0  0  0  0  0  0  0  0  0
   39.8760   63.1850   54.4390 C   0  0  0  0  0  0  0  0  0  0  0  0
   40.3390   64.3640   56.5950 C   0  0  0  0  0  0  0  0  0  0  0  0
   38.4330   62.9240   56.3540 O   0  0  0  0  0  0  0  0  0  0  0  0
   37.1080   63.1350   56.1040 C   0  0  0  0  0  0  0  0  0  0  0  0
   36.2240   62.4300   56.5650 O   0  0  0  0  0  0  0  0  0  0  0  0
   34.5060   64.3940   50.8760 C   0  0  0  0  0  0  0  0  0  0  0  0
   34.9330   63.9850   49.4700 C   0  0  0  0  0  0  0  0  0  0  0  0
   28.8823   59.8024   54.1012 H   0  0  0  0  0  0  0  0  0  0  0  0
   27.9649   58.5972   53.1356 H   0  0  0  0  0  0  0  0  0  0  0  0
   29.7609   58.5686   53.1356 H   0  0  0  0  0  0  0  0  0  0  0  0
   28.3079   59.7073   51.1618 H   0  0  0  0  0  0  0  0  0  0  0  0
   28.4479   61.1158   52.2976 H   0  0  0  0  0  0  0  0  0  0  0  0
   30.9150   60.6980   52.2020 H   0  0  0  0  0  0  0  0  0  0  0  0
   32.3880   60.9370   50.7160 H   0  0  0  0  0  0  0  0  0  0  0  0
   34.4171   56.5420   46.5203 H   0  0  0  0  0  0  0  0  0  0  0  0
   35.7685   57.4134   44.6030 H   0  0  0  0  0  0  0  0  0  0  0  0
   36.1263   59.8534   44.3359 H   0  0  0  0  0  0  0  0  0  0  0  0
   35.1757   61.4525   45.9866 H   0  0  0  0  0  0  0  0  0  0  0  0
   35.0378   60.8512   50.4838 H   0  0  0  0  0  0  0  0  0  0  0  0
   36.5299   61.4440   49.6257 H   0  0  0  0  0  0  0  0  0  0  0  0
   36.3537   61.7615   52.2126 H   0  0  0  0  0  0  0  0  0  0  0  0
   36.9216   63.1306   51.1798 H   0  0  0  0  0  0  0  0  0  0  0  0
   34.0951   62.6991   52.2244 H   0  0  0  0  0  0  0  0  0  0  0  0
   33.2507   63.8443   53.8904 H   0  0  0  0  0  0  0  0  0  0  0  0
   34.4627   62.7471   54.6594 H   0  0  0  0  0  0  0  0  0  0  0  0
   33.7355   65.5889   55.3053 H   0  0  0  0  0  0  0  0  0  0  0  0
   34.1406   64.1673   56.3859 H   0  0  0  0  0  0  0  0  0  0  0  0
   35.9147   66.2242   55.1578 H   0  0  0  0  0  0  0  0  0  0  0  0
   35.9716   65.3731   56.7723 H   0  0  0  0  0  0  0  0  0  0  0  0
   37.3281   64.2637   53.0538 H   0  0  0  0  0  0  0  0  0  0  0  0
   36.6879   62.7040   53.7898 H   0  0  0  0  0  0  0  0  0  0  0  0
   38.5671   65.4445   54.3188 H   0  0  0  0  0  0  0  0  0  0  0  0
   38.2864   65.8031   56.0230 H   0  0  0  0  0  0  0  0  0  0  0  0
   40.5842   62.4164   54.7821 H   0  0  0  0  0  0  0  0  0  0  0  0
   39.0890   62.7137   53.8320 H   0  0  0  0  0  0  0  0  0  0  0  0
   40.4101   63.9308   53.8320 H   0  0  0  0  0  0  0  0  0  0  0  0
   40.0170   64.2194   57.6368 H   0  0  0  0  0  0  0  0  0  0  0  0
   41.2622   63.7939   56.4141 H   0  0  0  0  0  0  0  0  0  0  0  0
   40.5266   65.4327   56.4141 H   0  0  0  0  0  0  0  0  0  0  0  0
   33.4104   64.4914   50.8919 H   0  0  0  0  0  0  0  0  0  0  0  0
   35.0144   65.3425   51.1038 H   0  0  0  0  0  0  0  0  0  0  0  0
   34.2972   64.5015   48.7359 H   0  0  0  0  0  0  0  0  0  0  0  0
   35.9877   64.2634   49.3280 H   0  0  0  0  0  0  0  0  0  0  0  0
  1  2  1  0
  2  3  1  0
  3  4  1  0
  4  5  2  0
  4  6  1  0
  6  7  1  0
  7  8  1  0
  8  9  1  0
  9 10  2  0
 10 11  1  0
 11 12  2  0
 12 13  1  0
 13 14  2  0
 14 15  1  0
 15 16  1  0
 16 17  2  0
 16 18  1  0
 18 19  1  0
 19 20  1  0
 20 21  1  0
 21 22  1  0
 22 23  1  0
 23 24  1  0
 24 25  1  0
 26 25  1  1
 26 27  1  0
 26 28  1  0
 28 29  1  0
 29 30  1  0
 29 31  1  0
 29 32  1  0
 32 33  1  0
 33 34  2  0
 21 35  1  0
 35 36  1  0
 15  7  2  0
 36 18  1  0
 14  9  1  0
 27 22  1  0
 33 26  1  0
  1 37  1  0
  1 38  1  0
  1 39  1  0
  2 40  1  0
  2 41  1  0
  3 42  1  0
  6 43  1  0
 10 44  1  0
 11 45  1  0
 12 46  1  0
 13 47  1  0
 19 48  1  0
 19 49  1  0
 20 50  1  0
 20 51  1  0
 21 52  1  0
 23 53  1  0
 23 54  1  0
 24 55  1  0
 24 56  1  0
 25 57  1  0
 25 58  1  0
 27 59  1  0
 27 60  1  0
 28 61  1  0
 28 62  1  0
 30 63  1  0
 30 64  1  0
 30 65  1  0
 31 66  1  0
 31 67  1  0
 31 68  1  0
 35 69  1  0
 35 70  1  0
 36 71  1  0
 36 72  1  0
M  END
>  <meeko>  (5) 
{"is_sidechain": [false], "free_energy": -9.209, "intermolecular_energy": -11.297, "internal_energy": -1.255}

$$$$
seed-1003
     RDKit          3D

 72 76  0  0  0  0  0  0  0  0999 V2000
   29.4170   61.1280   54.7030 C   0  0  0  0  0  0  0  0  0  0  0  0
   29.3560   61.8380   53.3630 C   0  0  0  0  0  0  0  0  0  0  0  0
   30.6690   62.2430   52.9050 N   0  0  0  0  0  0  0  0  0  0  0  0
   31.1490   61.8410   51.6690 C   0  0  0  0  0  0  0  0  0  0  0  0
   30.4700   61.1800   50.8960 O   0  0  0  0  0  0  0  0  0  0  0  0
   32.4380   62.2940   51.4850 N   0  0  0  0  0  0  0  0  0  0  0  0
   33.2540   62.1020   50.3790 C   0  0  0  0  0  0  0  0  0  0  0  0
   33.2040   60.6810   49.4670 S   0  0  0  0  0  0  0  0  0  0  0  0
   34.3200   61.2770   48.3090 C   0  0  0  0  0  0  0  0  0  0  0  0
   34.7570   60.6190   47.1420 C   0  0  0  0  0  0  0  0  0  0  0  0
   35.6510   61.2700   46.2900 C   0  0  0  0  0  0  0  0  0  0  0  0
   36.0990   62.5480   46.5870 C   0  0  0  0  0  0  0  0  0  0  0  0
   35.6670   63.1920   47.7510 C   0  0  0  0  0  0  0  0  0  0  0  0
   34.7740   62.5530   48.6510 C   0  0  0  0  0  0  0  0  0  0  0  0
   34.2070   62.9920   49.9110 C   0  0  0  0  0  0  0  0  0  0  0  0
   34.5010   64.2380   50.6190 C   0  0  0  0  0  0  0  0  0  0  0  0
   33.6260   65.0930   50.7530 O   0  0  0  0  0  0  0  0  0  0  0  0
   35.7680   64.3840   51.1930 N   0  0  0  0  0  0  0  0  0  0  0  0
   36.6170   63.2530   51.5690 C   0  0  0  0  0  0  0  0  0  0  0  0
   37.3670   63.4890   52.8870 C   0  0  0  0  0  0  0  0  0  0  0  0
   36.4610   64.1990   53.9160 C   0  0  0  0  0  0  0  0  0  0  0  0
   37.0840   64.4000   55.2540 N   0  0  0  0  0  0  0  0  0  0  0  0
   36.0770   64.3440   56.3300 C   0  0  0  0  0  0  0  0  0  0  0  0
   36.6580   64.8620   57.6460 C   0  0  0  0  0  0  0  0  0  0  0  0
   38.1590   64.6260   57.7990 C   0  0  0  0  0  0  0  0  0  0  0  0
   38.6690   63.4180   57.0060 C   0  0  1  0  0  0  0  0  0  0  0  0
   38.1530   63.4160   55.5450 C   0  0  0  0  0  0  0  0  0  0  0  0
   40.1990   63.3470   57.0930 C   0  0  0  0  0  0  0  0  0  0  0  0
   40.5220   61.8620   57.1470 C   0  0  0  0  0  0  0  0  0  0  0  0
   40.7510   61.2360   55.7700 C   0  0  0  0  0  0  0  0  0  0  0  0
   41.7250   61.5820   58.0470 C   0  0  0  0  0  0  0  0  0  0  0  0
   39.3640   61.2660   57.7430 O   0  0  0  0  0  0  0  0  0  0  0  0
   38.2930   62.1100   57.6770 C   0  0  0  0  0  0  0  0  0  0  0  0
   37.1850   61.8090   58.0890 O   0  0  0  0  0  0  0  0  0  0  0  0
   35.9920   65.5620   53.3320 C   0  0  0  0  0  0  0  0  0  0  0  0
   36.1100   65.6500   51.8130 C   0  0  0  0  0  0  0  0  0  0  0  0
   29.3534   61.8688   55.5137 H   0  0  0  0  0  0  0  0  0  0  0  0
   28.5761   60.4234   54.7833 H   0  0  0  0  0  0  0  0  0  0  0  0
   30.3658   60.5772   54.7833 H   0  0  0  0  0  0  0  0  0  0  0  0
   28.9146   61.1575   52.6200 H   0  0  0  0  0  0  0  0  0  0  0  0
   28.7437   62.7436   53.4851 H   0  0  0  0  0  0  0  0  0  0  0  0
   31.3530   62.4670   53.6110 H   0  0  0  0  0  0  0  0  0  0  0  0
   32.7630   62.9980   52.1390 H   0  0  0  0  0  0  0  0  0  0  0  0
   34.3986   59.6063   46.9056 H   0  0  0  0  0  0  0  0  0  0  0  0
   36.0021   60.7659   45.3775 H   0  0  0  0  0  0  0  0  0  0  0  0
   36.7962   63.0570   45.9052 H   0  0  0  0  0  0  0  0  0  0  0  0
   36.0244   64.2085   47.9724 H   0  0  0  0  0  0  0  0  0  0  0  0
   35.9849   62.3595   51.6787 H   0  0  0  0  0  0  0  0  0  0  0  0
   37.3692   63.1239   50.7768 H   0  0  0  0  0  0  0  0  0  0  0  0
   37.6879   62.5202   53.2974 H   0  0  0  0  0  0  0  0  0  0  0  0
   38.2392   64.1284   52.6858 H   0  0  0  0  0  0  0  0  0  0  0  0
   35.6063   63.5290   54.0906 H   0  0  0  0  0  0  0  0  0  0  0  0
   35.2135   64.9644   56.0482 H   0  0  0  0  0  0  0  0  0  0  0  0
   35.7680   63.2975   56.4691 H   0  0  0  0  0  0  0  0  0  0  0  0
   36.4705   65.9443   57.7044 H   0  0  0  0  0  0  0  0  0  0  0  0
   36.1642   64.3018   58.4537 H   0  0  0  0  0  0  0  0  0  0  0  0
   38.6905   65.5229   57.4483 H   0  0  0  0  0  0  0  0  0  0  0  0
   38.3485   64.4197   58.8627 H   0  0  0  0  0  0  0  0  0  0  0  0
   39.0043   63.6320   54.8828 H   0  0  0  0  0  0  0  0  0  0  0  0
   37.7090   62.4235   55.3786 H   0  0  0  0  0  0  0  0  0  0  0  0
   40.6585   63.8106   56.2076 H   0  0  0  0  0  0  0  0  0  0  0  0
   40.5884   63.8865   57.9690 H   0  0  0  0  0  0  0  0  0  0  0  0
   41.1266   60.2093   55.8918 H   0  0  0  0  0  0  0  0  0  0  0  0
   39.8021   61.2157   55.2140 H   0  0  0  0  0  0  0  0  0  0  0  0
   41.4890   61.8328   55.2140 H   0  0  0  0  0  0  0  0  0  0  0  0
   41.4188   61.6533   59.1011 H   0  0  0  0  0  0  0  0  0  0  0  0
   42.1074   60.5708   57.8438 H   0  0  0  0  0  0  0  0  0  0  0  0
   42.5147   62.3204   57.8438 H   0  0  0  0  0  0  0  0  0  0  0  0
   34.9382   65.7143   53.6082 H   0  0  0  0  0  0  0  0  0  0  0  0
   36.6511   66.3362   53.7517 H   0  0  0  0  0  0  0  0  0  0  0  0
   35.4264   66.4284   51.4432 H   0  0  0  0  0  0  0  0  0  0  0  0
   37.1502   65.8980   51.5551 H   0  0  0  0  0  0  0  0  0  0  0  0
  1  2  1  0
  2  3  1  0
  3  4  1  0
  4  5  2  0
  4  6  1  0
  6  7  1  0
  7  8  1  0
  8  9  1  0
  9 10  2  0
 10 11  1  0
 11 12  2  0
 12 13  1  0
 13 14  2  0
 14 15  1  0
 15 16  1  0
 16 17  2  0
 16 18  1  0
 18 19  1  0
 19 20  1  0
 20 21  1  0
 21 22  1  0
 22 23  1  0
 23 24  1  0
 24 25  1  0
 26 25  1  1
 26 27  1  0
 26 28  1  0
 28 29  1  0
 29 30  1  0
 29 31  1  0
 29 32  1  0
 32 33  1  0
 33 34  2  0
 21 35  1  0
 35 36  1  0
 15  7  2  0
 36 18  1  0
 14  9  1  0
 27 22  1  0
 33 26  1  0
  1 37  1  0
  1 38  1  0
  1 39  1  0
  2 40  1  0
  2 41  1  0
  3 42  1  0
  6 43  1  0
 10 44  1  0
 11 45  1  0
 12 46  1  0
 13 47  1  0
 19 48  1  0
 19 49  1  0
 20 50  1  0
 20 51  1  0
 21 52  1  0
 23 53  1  0
 23 54  1  0
 24 55  1  0
 24 56  1  0
 25 57  1  0
 25 58  1  0
 27 59  1  0
 27 60  1  0
 28 61  1  0
 28 62  1  0
 30 63  1  0
 30 64  1  0
 30 65  1  0
 31 66  1  0
 31 67  1  0
 31 68  1  0
 35 69  1  0
 35 70  1  0
 36 71  1  0
 36 72  1  0
M  END
>  <meeko>  (6) 
{"is_sidechain": [false], "free_energy": -8.787, "intermolecular_energy": -10.992, "internal_energy": -1.038}

$$$$
seed-1003
     RDKit          3D

 72 76  0  0  0  0  0  0  0  0999 V2000
   38.3730   70.6650   47.7020 C   0  0  0  0  0  0  0  0  0  0  0  0
   37.9190   69.2730   48.1000 C   0  0  0  0  0  0  0  0  0  0  0  0
   37.7120   69.1580   49.5290 N   0  0  0  0  0  0  0  0  0  0  0  0
   38.6640   68.5650   50.3430 C   0  0  0  0  0  0  0  0  0  0  0  0
   39.7330   68.1660   49.9030 O   0  0  0  0  0  0  0  0  0  0  0  0
   38.2150   68.5150   51.6460 N   0  0  0  0  0  0  0  0  0  0  0  0
   38.8790   68.0000   52.7510 C   0  0  0  0  0  0  0  0  0  0  0  0
   40.5640   68.0200   52.8710 S   0  0  0  0  0  0  0  0  0  0  0  0
   40.5490   67.3850   54.4640 C   0  0  0  0  0  0  0  0  0  0  0  0
   41.6660   67.1570   55.2930 C   0  0  0  0  0  0  0  0  0  0  0  0
   41.4650   66.6600   56.5820 C   0  0  0  0  0  0  0  0  0  0  0  0
   40.1830   66.4010   57.0420 C   0  0  0  0  0  0  0  0  0  0  0  0
   39.0790   66.6230   56.2130 C   0  0  0  0  0  0  0  0  0  0  0  0
   39.2470   67.1070   54.8880 C   0  0  0  0  0  0  0  0  0  0  0  0
   38.2820   67.3930   53.8430 C   0  0  0  0  0  0  0  0  0  0  0  0
   36.8380   67.1640   53.8960 C   0  0  0  0  0  0  0  0  0  0  0  0
   36.0580   68.1090   53.7790 O   0  0  0  0  0  0  0  0  0  0  0  0
   36.3860   65.8450   54.0050 N   0  0  0  0  0  0  0  0  0  0  0  0
   37.1730   64.6860   53.5820 C   0  0  0  0  0  0  0  0  0  0  0  0
   36.3180   63.6030   52.9100 C   0  0  0  0  0  0  0  0  0  0  0  0
   35.2520   64.2370   51.9910 C   0  0  0  0  0  0  0  0  0  0  0  0
   34.4240   63.2560   51.2350 N   0  0  0  0  0  0  0  0  0  0  0  0
   33.0830   63.7960   50.9410 C   0  0  0  0  0  0  0  0  0  0  0  0
   32.1450   62.6890   50.4600 C   0  0  0  0  0  0  0  0  0  0  0  0
   32.8480   61.5590   49.7110 C   0  0  0  0  0  0  0  0  0  0  0  0
   34.1450   61.9990   49.0240 C   0  0  1  0  0  0  0  0  0  0  0  0
   35.0560   62.8250   49.9660 C   0  0  0  0  0  0  0  0  0  0  0  0
   34.8600   60.7770   48.4310 C   0  0  0  0  0  0  0  0  0  0  0  0
   35.4810   61.2760   47.1360 C   0  0  0  0  0  0  0  0  0  0  0  0
   36.9080   61.8030   47.3060 C   0  0  0  0  0  0  0  0  0  0  0  0
   35.4550   60.2000   46.0510 C   0  0  0  0  0  0  0  0  0  0  0  0
   34.6330   62.3530   46.7230 O   0  0  0  0  0  0  0  0  0  0  0  0
   33.8670   62.7960   47.7630 C   0  0  0  0  0  0  0  0  0  0  0  0
   33.0890   63.7310   47.6640 O   0  0  0  0  0  0  0  0  0  0  0  0
   34.3400   65.1730   52.8330 C   0  0  0  0  0  0  0  0  0  0  0  0
   34.9630   65.6060   54.1560 C   0  0  0  0  0  0  0  0  0  0  0  0
   38.5671   71.2600   48.6066 H   0  0  0  0  0  0  0  0  0  0  0  0
   39.2944   70.5936   47.1054 H   0  0  0  0  0  0  0  0  0  0  0  0
   37.5867   71.1506   47.1054 H   0  0  0  0  0  0  0  0  0  0  0  0
   36.9738   69.0468   47.5848 H   0  0  0  0  0  0  0  0  0  0  0  0
   38.7084   68.5629   47.8126 H   0  0  0  0  0  0  0  0  0  0  0  0
   36.7580   69.1460   49.8560 H   0  0  0  0  0  0  0  0  0  0  0  0
   37.3990   69.0770   51.8610 H   0  0  0  0  0  0  0  0  0  0  0  0
   42.6824   67.3678   54.9291 H   0  0  0  0  0  0  0  0  0  0  0  0
   42.3289   66.4728   57.2366 H   0  0  0  0  0  0  0  0  0  0  0  0
   40.0338   66.0195   58.0629 H   0  0  0  0  0  0  0  0  0  0  0  0
   38.0665   66.4201   56.5921 H   0  0  0  0  0  0  0  0  0  0  0  0
   37.9394   65.0225   52.8683 H   0  0  0  0  0  0  0  0  0  0  0  0
   37.6227   64.2430   54.4828 H   0  0  0  0  0  0  0  0  0  0  0  0
   36.9692   62.9504   52.3100 H   0  0  0  0  0  0  0  0  0  0  0  0
   35.8080   63.0212   53.6919 H   0  0  0  0  0  0  0  0  0  0  0  0
   35.8013   64.8049   51.2257 H   0  0  0  0  0  0  0  0  0  0  0  0
   32.6684   64.2485   51.8539 H   0  0  0  0  0  0  0  0  0  0  0  0
   33.1737   64.5511   50.1463 H   0  0  0  0  0  0  0  0  0  0  0  0
   31.6387   62.2597   51.3371 H   0  0  0  0  0  0  0  0  0  0  0  0
   31.4442   63.1527   49.7502 H   0  0  0  0  0  0  0  0  0  0  0  0
   33.0872   60.7607   50.4290 H   0  0  0  0  0  0  0  0  0  0  0  0
   32.1624   61.2167   48.9218 H   0  0  0  0  0  0  0  0  0  0  0  0
   35.9345   62.2114   50.2143 H   0  0  0  0  0  0  0  0  0  0  0  0
   35.3048   63.7468   49.4198 H   0  0  0  0  0  0  0  0  0  0  0  0
   35.6381   60.4130   49.1180 H   0  0  0  0  0  0  0  0  0  0  0  0
   34.1711   59.9362   48.2623 H   0  0  0  0  0  0  0  0  0  0  0  0
   37.1418   61.8893   48.3774 H   0  0  0  0  0  0  0  0  0  0  0  0
   37.6150   61.1067   46.8314 H   0  0  0  0  0  0  0  0  0  0  0  0
   36.9927   62.7917   46.8314 H   0  0  0  0  0  0  0  0  0  0  0  0
   35.4310   59.2058   46.5211 H   0  0  0  0  0  0  0  0  0  0  0  0
   34.5598   60.3316   45.4255 H   0  0  0  0  0  0  0  0  0  0  0  0
   36.3555   60.2882   45.4255 H   0  0  0  0  0  0  0  0  0  0  0  0
   34.1238   66.0735   52.2394 H   0  0  0  0  0  0  0  0  0  0  0  0
   33.4310   64.6033   53.0763 H   0  0  0  0  0  0  0  0  0  0  0  0
   34.4766   66.5318   54.4971 H   0  0  0  0  0  0  0  0  0  0  0  0
   34.8181   64.8018   54.8924 H   0  0  0  0  0  0  0  0  0  0  0  0
  1  2  1  0
  2  3  1  0
  3  4  1  0
  4  5  2  0
  4  6  1  0
  6  7  1  0
  7  8  1  0
  8  9  1  0
  9 10  2  0
 10 11  1  0
 11 12  2  0
 12 13  1  0
 13 14  2  0
 14 15  1  0
 15 16  1  0
 16 17  2  0
 16 18  1  0
 18 19  1  0
 19 20  1  0
 20 21  1  0
 21 22  1  0
 22 23  1  0
 23 24  1  0
 24 25  1  0
 26 25  1  1
 26 27  1  0
 26 28  1  0
 28 29  1  0
 29 30  1  0
 29 31  1  0
 29 32  1  0
 32 33  1  0
 33 34  2  0
 21 35  1  0
 35 36  1  0
 15  7  2  0
 36 18  1  0
 14  9  1  0
 27 22  1  0
 33 26  1  0
  1 37  1  0
  1 38  1  0
  1 39  1  0
  2 40  1  0
  2 41  1  0
  3 42  1  0
  6 43  1  0
 10 44  1  0
 11 45  1  0
 12 46  1  0
 13 47  1  0
 19 48  1  0
 19 49  1  0
 20 50  1  0
 20 51  1  0
 21 52  1  0
 23 53  1  0
 23 54  1  0
 24 55  1  0
 24 56  1  0
 25 57  1  0
 25 58  1  0
 27 59  1  0
 27 60  1  0
 28 61  1  0
 28 62  1  0
 30 63  1  0
 30 64  1  0
 30 65  1  0
 31 66  1  0
 31 67  1  0
 31 68  1  0
 35 69  1  0
 35 70  1  0
 36 71  1  0
 36 72  1  0
M  END
>  <meeko>  (7) 
{"is_sidechain": [false], "free_energy": -8.78, "intermolecular_energy": -11.009, "internal_energy": -1.013}

$$$$
seed-1003
     RDKit          3D

 72 76  0  0  0  0  0  0  0  0999 V2000
   37.7970   63.9540   45.6570 C   0  0  0  0  0  0  0  0  0  0  0  0
   36.9940   62.8330   46.2920 C   0  0  0  0  0  0  0  0  0  0  0  0
   35.7900   63.3250   46.9320 N   0  0  0  0  0  0  0  0  0  0  0  0
   35.2870   62.7170   48.0710 C   0  0  0  0  0  0  0  0  0  0  0  0
   35.8620   61.7840   48.6120 O   0  0  0  0  0  0  0  0  0  0  0  0
   34.1070   63.3190   48.4530 N   0  0  0  0  0  0  0  0  0  0  0  0
   33.3080   62.9990   49.5410 C   0  0  0  0  0  0  0  0  0  0  0  0
   32.1770   61.7440   49.4820 S   0  0  0  0  0  0  0  0  0  0  0  0
   31.7650   61.9160   51.1380 C   0  0  0  0  0  0  0  0  0  0  0  0
   30.8590   61.1220   51.8690 C   0  0  0  0  0  0  0  0  0  0  0  0
   30.6660   61.3860   53.2260 C   0  0  0  0  0  0  0  0  0  0  0  0
   31.3620   62.4120   53.8470 C   0  0  0  0  0  0  0  0  0  0  0  0
   32.2540   63.2020   53.1150 C   0  0  0  0  0  0  0  0  0  0  0  0
   32.4590   62.9760   51.7280 C   0  0  0  0  0  0  0  0  0  0  0  0
   33.2980   63.6570   50.7600 C   0  0  0  0  0  0  0  0  0  0  0  0
   34.1150   64.8480   50.9920 C   0  0  0  0  0  0  0  0  0  0  0  0
   33.5900   65.9590   51.0340 O   0  0  0  0  0  0  0  0  0  0  0  0
   35.4810   64.6690   51.2350 N   0  0  0  0  0  0  0  0  0  0  0  0
   36.0510   63.4260   51.7560 C   0  0  0  0  0  0  0  0  0  0  0  0
   37.1780   63.6710   52.7700 C   0  0  0  0  0  0  0  0  0  0  0  0
   36.8350   64.8570   53.6970 C   0  0  0  0  0  0  0  0  0  0  0  0
   37.8400   65.1180   54.7650 N   0  0  0  0  0  0  0  0  0  0  0  0
   37.3540   66.1220   55.7290 C   0  0  0  0  0  0  0  0  0  0  0  0
   38.4920   66.6170   56.6210 C   0  0  0  0  0  0  0  0  0  0  0  0
   39.5830   65.5770   56.8720 C   0  0  0  0  0  0  0  0  0  0  0  0
   39.0800   64.1330   56.7750 C   0  0  1  0  0  0  0  0  0  0  0  0
   38.2280   63.8930   55.5030 C   0  0  0  0  0  0  0  0  0  0  0  0
   40.2630   63.1620   56.8860 C   0  0  0  0  0  0  0  0  0  0  0  0
   39.7220   61.9710   57.6630 C   0  0  0  0  0  0  0  0  0  0  0  0
   39.1380   60.8740   56.7710 C   0  0  0  0  0  0  0  0  0  0  0  0
   40.7840   61.3750   58.5860 C   0  0  0  0  0  0  0  0  0  0  0  0
   38.6760   62.5190   58.4750 O   0  0  0  0  0  0  0  0  0  0  0  0
   38.2790   63.7360   58.0010 C   0  0  0  0  0  0  0  0  0  0  0  0
   37.3760   64.3830   58.5070 O   0  0  0  0  0  0  0  0  0  0  0  0
   36.6200   66.1350   52.8370 C   0  0  0  0  0  0  0  0  0  0  0  0
   36.3240   65.8420   51.3700 C   0  0  0  0  0  0  0  0  0  0  0  0
   38.2436   64.5774   46.4456 H   0  0  0  0  0  0  0  0  0  0  0  0
   38.5948   63.5254   45.0326 H   0  0  0  0  0  0  0  0  0  0  0  0
   37.1345   64.5714   45.0326 H   0  0  0  0  0  0  0  0  0  0  0  0
   36.7120   62.1113   45.5112 H   0  0  0  0  0  0  0  0  0  0  0  0
   37.6202   62.3597   47.0626 H   0  0  0  0  0  0  0  0  0  0  0  0
   35.1340   63.8260   46.3520 H   0  0  0  0  0  0  0  0  0  0  0  0
   33.8930   64.2050   48.0100 H   0  0  0  0  0  0  0  0  0  0  0  0
   30.3111   60.3050   51.3768 H   0  0  0  0  0  0  0  0  0  0  0  0
   29.9576   60.7765   53.8062 H   0  0  0  0  0  0  0  0  0  0  0  0
   31.2119   62.6052   54.9194 H   0  0  0  0  0  0  0  0  0  0  0  0
   32.8043   64.0094   53.6203 H   0  0  0  0  0  0  0  0  0  0  0  0
   35.2525   62.8520   52.2490 H   0  0  0  0  0  0  0  0  0  0  0  0
   36.4818   62.8759   50.9064 H   0  0  0  0  0  0  0  0  0  0  0  0
   37.3176   62.7659   53.3794 H   0  0  0  0  0  0  0  0  0  0  0  0
   38.1005   63.9093   52.2203 H   0  0  0  0  0  0  0  0  0  0  0  0
   35.9125   64.5789   54.2276 H   0  0  0  0  0  0  0  0  0  0  0  0
   36.9310   66.9750   55.1782 H   0  0  0  0  0  0  0  0  0  0  0  0
   36.5863   65.6564   56.3645 H   0  0  0  0  0  0  0  0  0  0  0  0
   38.9528   67.4923   56.1399 H   0  0  0  0  0  0  0  0  0  0  0  0
   38.0487   66.8553   57.5991 H   0  0  0  0  0  0  0  0  0  0  0  0
   40.3792   65.7198   56.1266 H   0  0  0  0  0  0  0  0  0  0  0  0
   39.9446   65.7269   57.9000 H   0  0  0  0  0  0  0  0  0  0  0  0
   38.8072   63.2534   54.8208 H   0  0  0  0  0  0  0  0  0  0  0  0
   37.2898   63.4321   55.8456 H   0  0  0  0  0  0  0  0  0  0  0  0
   40.6026   62.8503   55.8872 H   0  0  0  0  0  0  0  0  0  0  0  0
   41.1298   63.6213   57.3837 H   0  0  0  0  0  0  0  0  0  0  0  0
   38.7138   60.0773   57.3997 H   0  0  0  0  0  0  0  0  0  0  0  0
   38.3473   61.3000   56.1359 H   0  0  0  0  0  0  0  0  0  0  0  0
   39.9329   60.4559   56.1359 H   0  0  0  0  0  0  0  0  0  0  0  0
   40.4925   61.5386   59.6340 H   0  0  0  0  0  0  0  0  0  0  0  0
   40.8724   60.2955   58.3942 H   0  0  0  0  0  0  0  0  0  0  0  0
   41.7515   61.8619   58.3942 H   0  0  0  0  0  0  0  0  0  0  0  0
   35.7733   66.6980   53.2567 H   0  0  0  0  0  0  0  0  0  0  0  0
   37.5595   66.7063   52.8683 H   0  0  0  0  0  0  0  0  0  0  0  0
   35.8100   66.7076   50.9267 H   0  0  0  0  0  0  0  0  0  0  0  0
   37.2752   65.6521   50.8512 H   0  0  0  0  0  0  0  0  0  0  0  0
  1  2  1  0
  2  3  1  0
  3  4  1  0
  4  5  2  0
  4  6  1  0
  6  7  1  0
  7  8  1  0
  8  9  1  0
  9 10  2  0
 10 11  1  0
 11 12  2  0
 12 13  1  0
 13 14  2  0
 14 15  1  0
 15 16  1  0
 16 17  2  0
 16 18  1  0
 18 19  1  0
 19 20  1  0
 20 21  1  0
 21 22  1  0
 22 23  1  0
 23 24  1  0
 24 25  1  0
 26 25  1  1
 26 27  1  0
 26 28  1  0
 28 29  1  0
 29 30  1  0
 29 31  1  0
 29 32  1  0
 32 33  1  0
 33 34  2  0
 21 35  1  0
 35 36  1  0
 15  7  2  0
 36 18  1  0
 14  9  1  0
 27 22  1  0
 33 26  1  0
  1 37  1  0
  1 38  1  0
  1 39  1  0
  2 40  1  0
  2 41  1  0
  3 42  1  0
  6 43  1  0
 10 44  1  0
 11 45  1  0
 12 46  1  0
 13 47  1  0
 19 48  1  0
 19 49  1  0
 20 50  1  0
 20 51  1  0
 21 52  1  0
 23 53  1  0
 23 54  1  0
 24 55  1  0
 24 56  1  0
 25 57  1  0
 25 58  1  0
 27 59  1  0
 27 60  1  0
 28 61  1  0
 28 62  1  0
 30 63  1  0
 30 64  1  0
 30 65  1  0
 31 66  1  0
 31 67  1  0
 31 68  1  0
 35 69  1  0
 35 70  1  0
 36 71  1  0
 36 72  1  0
M  END
>  <meeko>  (8) 
{"is_sidechain": [false], "free_energy": -8.752, "intermolecular_energy": -10.677, "internal_energy": -1.31}

$$$$
seed-1003
     RDKit          3D

 72 76  0  0  0  0  0  0  0  0999 V2000
   29.6870   60.8380   54.8270 C   0  0  0  0  0  0  0  0  0  0  0  0
   29.2590   61.6280   53.6030 C   0  0  0  0  0  0  0  0  0  0  0  0
   30.3810   62.2790   52.9590 N   0  0  0  0  0  0  0  0  0  0  0  0
   31.0230   61.6960   51.8790 C   0  0  0  0  0  0  0  0  0  0  0  0
   30.6390   60.6420   51.3920 O   0  0  0  0  0  0  0  0  0  0  0  0
   32.0940   62.4690   51.4830 N   0  0  0  0  0  0  0  0  0  0  0  0
   32.9760   62.2230   50.4410 C   0  0  0  0  0  0  0  0  0  0  0  0
   33.0400   60.7270   49.6570 S   0  0  0  0  0  0  0  0  0  0  0  0
   34.1880   61.2770   48.5070 C   0  0  0  0  0  0  0  0  0  0  0  0
   34.7170   60.5430   47.4260 C   0  0  0  0  0  0  0  0  0  0  0  0
   35.6250   61.1620   46.5650 C   0  0  0  0  0  0  0  0  0  0  0  0
   35.9970   62.4820   46.7690 C   0  0  0  0  0  0  0  0  0  0  0  0
   35.4740   63.2020   47.8480 C   0  0  0  0  0  0  0  0  0  0  0  0
   34.5640   62.5990   48.7560 C   0  0  0  0  0  0  0  0  0  0  0  0
   33.9100   63.1160   49.9430 C   0  0  0  0  0  0  0  0  0  0  0  0
   34.1080   64.4320   50.5510 C   0  0  0  0  0  0  0  0  0  0  0  0
   33.1880   65.2490   50.5690 O   0  0  0  0  0  0  0  0  0  0  0  0
   35.3370   64.6930   51.1660 N   0  0  0  0  0  0  0  0  0  0  0  0
   36.2200   63.6440   51.6780 C   0  0  0  0  0  0  0  0  0  0  0  0
   36.8920   64.0310   53.0030 C   0  0  0  0  0  0  0  0  0  0  0  0
   35.9020   64.7780   53.9230 C   0  0  0  0  0  0  0  0  0  0  0  0
   36.4470   65.1250   55.2660 N   0  0  0  0  0  0  0  0  0  0  0  0
   36.3460   63.9880   56.1980 C   0  0  0  0  0  0  0  0  0  0  0  0
   36.6030   64.4390   57.6360 C   0  0  0  0  0  0  0  0  0  0  0  0
   37.5600   65.6240   57.7550 C   0  0  0  0  0  0  0  0  0  0  0  0
   38.5520   65.7230   56.5920 C   0  0  1  0  0  0  0  0  0  0  0  0
   37.8570   65.5800   55.2150 C   0  0  0  0  0  0  0  0  0  0  0  0
   39.3660   67.0180   56.7120 C   0  0  0  0  0  0  0  0  0  0  0  0
   40.7590   66.6530   56.2220 C   0  0  0  0  0  0  0  0  0  0  0  0
   40.9580   66.8810   54.7220 C   0  0  0  0  0  0  0  0  0  0  0  0
   41.8410   67.3980   57.0040 C   0  0  0  0  0  0  0  0  0  0  0  0
   40.8830   65.2550   56.5030 O   0  0  0  0  0  0  0  0  0  0  0  0
   39.6570   64.6900   56.7090 C   0  0  0  0  0  0  0  0  0  0  0  0
   39.5040   63.4990   56.9310 O   0  0  0  0  0  0  0  0  0  0  0  0
   35.3970   66.0600   53.2010 C   0  0  0  0  0  0  0  0  0  0  0  0
   35.5870   66.0230   51.6880 C   0  0  0  0  0  0  0  0  0  0  0  0
   29.3921   61.3823   55.7363 H   0  0  0  0  0  0  0  0  0  0  0  0
   29.1998   59.8519   54.8157 H   0  0  0  0  0  0  0  0  0  0  0  0
   30.7792   60.7075   54.8157 H   0  0  0  0  0  0  0  0  0  0  0  0
   28.7862   60.9420   52.8848 H   0  0  0  0  0  0  0  0  0  0  0  0
   28.5554   62.4076   53.9302 H   0  0  0  0  0  0  0  0  0  0  0  0
   30.9190   62.9250   53.5170 H   0  0  0  0  0  0  0  0  0  0  0  0
   32.1350   63.4060   51.8670 H   0  0  0  0  0  0  0  0  0  0  0  0
   34.4184   59.4969   47.2631 H   0  0  0  0  0  0  0  0  0  0  0  0
   36.0478   60.5992   45.7197 H   0  0  0  0  0  0  0  0  0  0  0  0
   36.7058   62.9645   46.0800 H   0  0  0  0  0  0  0  0  0  0  0  0
   35.7719   64.2506   47.9953 H   0  0  0  0  0  0  0  0  0  0  0  0
   35.6270   62.7314   51.8374 H   0  0  0  0  0  0  0  0  0  0  0  0
   37.0157   63.4869   50.9349 H   0  0  0  0  0  0  0  0  0  0  0  0
   37.2386   63.1191   53.5113 H   0  0  0  0  0  0  0  0  0  0  0  0
   37.7415   64.6954   52.7863 H   0  0  0  0  0  0  0  0  0  0  0  0
   35.0729   64.0813   54.1160 H   0  0  0  0  0  0  0  0  0  0  0  0
   35.3369   63.5554   56.1308 H   0  0  0  0  0  0  0  0  0  0  0  0
   37.1033   63.2390   55.9232 H   0  0  0  0  0  0  0  0  0  0  0  0
   35.6408   64.7252   58.0858 H   0  0  0  0  0  0  0  0  0  0  0  0
   37.0785   63.5932   58.1542 H   0  0  0  0  0  0  0  0  0  0  0  0
   36.9667   66.5497   57.7871 H   0  0  0  0  0  0  0  0  0  0  0  0
   38.1485   65.4757   58.6725 H   0  0  0  0  0  0  0  0  0  0  0  0
   37.8806   66.5610   54.7179 H   0  0  0  0  0  0  0  0  0  0  0  0
   38.4109   64.8000   54.6720 H   0  0  0  0  0  0  0  0  0  0  0  0
   38.9298   67.8086   56.0838 H   0  0  0  0  0  0  0  0  0  0  0  0
   39.3780   67.4051   57.7416 H   0  0  0  0  0  0  0  0  0  0  0  0
   41.6742   67.7015   54.5677 H   0  0  0  0  0  0  0  0  0  0  0  0
   41.3481   65.9621   54.2600 H   0  0  0  0  0  0  0  0  0  0  0  0
   39.9948   67.1433   54.2600 H   0  0  0  0  0  0  0  0  0  0  0  0
   41.6636   67.2758   58.0827 H   0  0  0  0  0  0  0  0  0  0  0  0
   42.8283   66.9874   56.7460 H   0  0  0  0  0  0  0  0  0  0  0  0
   41.8096   68.4669   56.7460 H   0  0  0  0  0  0  0  0  0  0  0  0
   34.3245   66.1796   53.4141 H   0  0  0  0  0  0  0  0  0  0  0  0
   35.9951   66.9013   53.5810 H   0  0  0  0  0  0  0  0  0  0  0  0
   34.8870   66.7308   51.2200 H   0  0  0  0  0  0  0  0  0  0  0  0
   36.6263   66.3006   51.4580 H   0  0  0  0  0  0  0  0  0  0  0  0
  1  2  1  0
  2  3  1  0
  3  4  1  0
  4  5  2  0
  4  6  1  0
  6  7  1  0
  7  8  1  0
  8  9  1  0
  9 10  2  0
 10 11  1  0
 11 12  2  0
 12 13  1  0
 13 14  2  0
 14 15  1  0
 15 16  1  0
 16 17  2  0
 16 18  1  0
 18 19  1  0
 19 20  1  0
 20 21  1  0
 21 22  1  0
 22 23  1  0
 23 24  1  0
 24 25  1  0
 26 25  1  1
 26 27  1  0
 26 28  1  0
 28 29  1  0
 29 30  1  0
 29 31  1  0
 29 32  1  0
 32 33  1  0
 33 34  2  0
 21 35  1  0
 35 36  1  0
 15  7  2  0
 36 18  1  0
 14  9  1  0
 27 22  1  0
 33 26  1  0
  1 37  1  0
  1 38  1  0
  1 39  1  0
  2 40  1  0
  2 41  1  0
  3 42  1  0
  6 43  1  0
 10 44  1  0
 11 45  1  0
 12 46  1  0
 13 47  1  0
 19 48  1  0
 19 49  1  0
 20 50  1  0
 20 51  1  0
 21 52  1  0
 23 53  1  0
 23 54  1  0
 24 55  1  0
 24 56  1  0
 25 57  1  0
 25 58  1  0
 27 59  1  0
 27 60  1  0
 28 61  1  0
 28 62  1  0
 30 63  1  0
 30 64  1  0
 30 65  1  0
 31 66  1  0
 31 67  1  0
 31 68  1  0
 35 69  1  0
 35 70  1  0
 36 71  1  0
 36 72  1  0
M  END
>  <meeko>  (9) 
{"is_sidechain": [false], "free_energy": -8.748, "intermolecular_energy": -11.084, "internal_energy": -0.898}

$$$$
seed-1003
     RDKit          3D

 72 76  0  0  0  0  0  0  0  0999 V2000
   37.6520   60.0830   45.4200 C   0  0  0  0  0  0  0  0  0  0  0  0
   37.2330   61.4400   45.9570 C   0  0  0  0  0  0  0  0  0  0  0  0
   36.6570   61.3440   47.2820 N   0  0  0  0  0  0  0  0  0  0  0  0
   35.2830   61.3310   47.4640 C   0  0  0  0  0  0  0  0  0  0  0  0
   34.5060   61.3430   46.5200 O   0  0  0  0  0  0  0  0  0  0  0  0
   34.9790   61.2990   48.8090 N   0  0  0  0  0  0  0  0  0  0  0  0
   33.7200   61.2750   49.3910 C   0  0  0  0  0  0  0  0  0  0  0  0
   32.6690   59.9660   49.1950 S   0  0  0  0  0  0  0  0  0  0  0  0
   31.5020   60.6260   50.2650 C   0  0  0  0  0  0  0  0  0  0  0  0
   30.2890   60.0290   50.6630 C   0  0  0  0  0  0  0  0  0  0  0  0
   29.4680   60.6990   51.5720 C   0  0  0  0  0  0  0  0  0  0  0  0
   29.8450   61.9340   52.0780 C   0  0  0  0  0  0  0  0  0  0  0  0
   31.0460   62.5250   51.6740 C   0  0  0  0  0  0  0  0  0  0  0  0
   31.8960   61.8810   50.7350 C   0  0  0  0  0  0  0  0  0  0  0  0
   33.1590   62.2880   50.1500 C   0  0  0  0  0  0  0  0  0  0  0  0
   33.8480   63.5630   50.3500 C   0  0  0  0  0  0  0  0  0  0  0  0
   33.3380   64.6110   49.9540 O   0  0  0  0  0  0  0  0  0  0  0  0
   35.0510   63.5540   51.0650 N   0  0  0  0  0  0  0  0  0  0  0  0
   35.4110   62.5070   52.0220 C   0  0  0  0  0  0  0  0  0  0  0  0
   36.1270   63.0600   53.2620 C   0  0  0  0  0  0  0  0  0  0  0  0
   35.4890   64.3900   53.7170 C   0  0  0  0  0  0  0  0  0  0  0  0
   36.0730   64.9620   54.9630 N   0  0  0  0  0  0  0  0  0  0  0  0
   36.1840   63.9420   56.0230 C   0  0  0  0  0  0  0  0  0  0  0  0
   36.4750   64.5920   57.3750 C   0  0  0  0  0  0  0  0  0  0  0  0
   37.2750   65.8900   57.2820 C   0  0  0  0  0  0  0  0  0  0  0  0
   38.1660   65.9680   56.0380 C   0  0  1  0  0  0  0  0  0  0  0  0
   37.4040   65.5750   54.7470 C   0  0  0  0  0  0  0  0  0  0  0  0
   38.8100   67.3570   55.9450 C   0  0  0  0  0  0  0  0  0  0  0  0
   40.2030   67.1080   55.3870 C   0  0  0  0  0  0  0  0  0  0  0  0
   40.2700   67.1740   53.8600 C   0  0  0  0  0  0  0  0  0  0  0  0
   41.2280   68.0680   55.9890 C   0  0  0  0  0  0  0  0  0  0  0  0
   40.5260   65.7790   55.8110 O   0  0  0  0  0  0  0  0  0  0  0  0
   39.4010   65.0990   56.1790 C   0  0  0  0  0  0  0  0  0  0  0  0
   39.4200   63.9340   56.5450 O   0  0  0  0  0  0  0  0  0  0  0  0
   35.5770   65.4240   52.5600 C   0  0  0  0  0  0  0  0  0  0  0  0
   35.7970   64.7910   51.1890 C   0  0  0  0  0  0  0  0  0  0  0  0
   37.8614   59.4048   46.2604 H   0  0  0  0  0  0  0  0  0  0  0  0
   36.8409   59.6656   44.8053 H   0  0  0  0  0  0  0  0  0  0  0  0
   38.5572   60.1955   44.8053 H   0  0  0  0  0  0  0  0  0  0  0  0
   38.1169   62.0933   46.0004 H   0  0  0  0  0  0  0  0  0  0  0  0
   36.4675   61.8511   45.2824 H   0  0  0  0  0  0  0  0  0  0  0  0
   37.2180   61.6750   48.0520 H   0  0  0  0  0  0  0  0  0  0  0  0
   35.7450   61.0830   49.4360 H   0  0  0  0  0  0  0  0  0  0  0  0
   29.9930   59.0481   50.2627 H   0  0  0  0  0  0  0  0  0  0  0  0
   28.5173   60.2450   51.8884 H   0  0  0  0  0  0  0  0  0  0  0  0
   29.1962   62.4509   52.8004 H   0  0  0  0  0  0  0  0  0  0  0  0
   31.3367   63.5015   52.0886 H   0  0  0  0  0  0  0  0  0  0  0  0
   34.4929   61.9943   52.3449 H   0  0  0  0  0  0  0  0  0  0  0  0
   36.1045   61.8186   51.5168 H   0  0  0  0  0  0  0  0  0  0  0  0
   36.0524   62.3265   54.0784 H   0  0  0  0  0  0  0  0  0  0  0  0
   37.1811   63.2441   53.0072 H   0  0  0  0  0  0  0  0  0  0  0  0
   34.4416   64.1620   53.9638 H   0  0  0  0  0  0  0  0  0  0  0  0
   35.2379   63.3846   56.0873 H   0  0  0  0  0  0  0  0  0  0  0  0
   37.0128   63.2633   55.7730 H   0  0  0  0  0  0  0  0  0  0  0  0
   35.5158   64.8115   57.8667 H   0  0  0  0  0  0  0  0  0  0  0  0
   37.0901   63.8796   57.9444 H   0  0  0  0  0  0  0  0  0  0  0  0
   36.5694   66.7336   57.2589 H   0  0  0  0  0  0  0  0  0  0  0  0
   37.9380   65.9263   58.1590 H   0  0  0  0  0  0  0  0  0  0  0  0
   37.2662   66.4839   54.1430 H   0  0  0  0  0  0  0  0  0  0  0  0
   38.0171   64.8076   54.2519 H   0  0  0  0  0  0  0  0  0  0  0  0
   38.2333   68.0062   55.2698 H   0  0  0  0  0  0  0  0  0  0  0  0
   38.8401   67.8648   56.9203 H   0  0  0  0  0  0  0  0  0  0  0  0
   41.0235   67.9162   53.5578 H   0  0  0  0  0  0  0  0  0  0  0  0
   40.5476   66.1868   53.4621 H   0  0  0  0  0  0  0  0  0  0  0  0
   39.2871   67.4664   53.4621 H   0  0  0  0  0  0  0  0  0  0  0  0
   41.1757   68.0191   57.0867 H   0  0  0  0  0  0  0  0  0  0  0  0
   42.2370   67.7825   55.6569 H   0  0  0  0  0  0  0  0  0  0  0  0
   41.0091   69.0936   55.6569 H   0  0  0  0  0  0  0  0  0  0  0  0
   34.6374   65.9954   52.5323 H   0  0  0  0  0  0  0  0  0  0  0  0
   36.4495   66.0621   52.7639 H   0  0  0  0  0  0  0  0  0  0  0  0
   35.4630   65.4927   50.4105 H   0  0  0  0  0  0  0  0  0  0  0  0
   36.8680   64.5690   51.0720 H   0  0  0  0  0  0  0  0  0  0  0  0
  1  2  1  0
  2  3  1  0
  3  4  1  0
  4  5  2  0
  4  6  1  0
  6  7  1  0
  7  8  1  0
  8  9  1  0
  9 10  2  0
 10 11  1  0
 11 12  2  0
 12 13  1  0
 13 14  2  0
 14 15  1  0
 15 16  1  0
 16 17  2  0
 16 18  1  0
 18 19  1  0
 19 20  1  0
 20 21  1  0
 21 22  1  0
 22 23  1  0
 23 24  1  0
 24 25  1  0
 26 25  1  1
 26 27  1  0
 26 28  1  0
 28 29  1  0
 29 30  1  0
 29 31  1  0
 29 32  1  0
 32 33  1  0
 33 34  2  0
 21 35  1  0
 35 36  1  0
 15  7  2  0
 36 18  1  0
 14  9  1  0
 27 22  1  0
 33 26  1  0
  1 37  1  0
  1 38  1  0
  1 39  1  0
  2 40  1  0
  2 41  1  0
  3 42  1  0
  6 43  1  0
 10 44  1  0
 11 45  1  0
 12 46  1  0
 13 47  1  0
 19 48  1  0
 19 49  1  0
 20 50  1  0
 20 51  1  0
 21 52  1  0
 23 53  1  0
 23 54  1  0
 24 55  1  0
 24 56  1  0
 25 57  1  0
 25 58  1  0
 27 59  1  0
 27 60  1  0
 28 61  1  0
 28 62  1  0
 30 63  1  0
 30 64  1  0
 30 65  1  0
 31 66  1  0
 31 67  1  0
 31 68  1  0
 35 69  1  0
 35 70  1  0
 36 71  1  0
 36 72  1  0
M  END
>  <meeko>  (10) 
{"is_sidechain": [false], "free_energy": -8.58, "intermolecular_energy": -10.85, "internal_energy": -0.925}

$$$$
seed-1003
     RDKit          3D

 72 76  0  0  0  0  0  0  0  0999 V2000
   40.4290   63.2920   61.3080 C   0  0  0  0  0  0  0  0  0  0  0  0
   41.1170   64.5520   60.8150 C   0  0  0  0  0  0  0  0  0  0  0  0
   41.1380   64.6280   59.3690 N   0  0  0  0  0  0  0  0  0  0  0  0
   40.6190   65.7270   58.7040 C   0  0  0  0  0  0  0  0  0  0  0  0
   40.1770   66.6960   59.3050 O   0  0  0  0  0  0  0  0  0  0  0  0
   40.6930   65.5400   57.3400 N   0  0  0  0  0  0  0  0  0  0  0  0
   40.2820   66.4120   56.3420 C   0  0  0  0  0  0  0  0  0  0  0  0
   41.2890   67.6330   55.7500 S   0  0  0  0  0  0  0  0  0  0  0  0
   40.1580   68.1080   54.5500 C   0  0  0  0  0  0  0  0  0  0  0  0
   40.3360   69.1070   53.5710 C   0  0  0  0  0  0  0  0  0  0  0  0
   39.3160   69.3410   52.6480 C   0  0  0  0  0  0  0  0  0  0  0  0
   38.1470   68.5980   52.6910 C   0  0  0  0  0  0  0  0  0  0  0  0
   37.9730   67.6140   53.6680 C   0  0  0  0  0  0  0  0  0  0  0  0
   38.9810   67.3610   54.6370 C   0  0  0  0  0  0  0  0  0  0  0  0
   39.0320   66.4280   55.7460 C   0  0  0  0  0  0  0  0  0  0  0  0
   37.9630   65.5320   56.1880 C   0  0  0  0  0  0  0  0  0  0  0  0
   37.2570   65.8390   57.1480 O   0  0  0  0  0  0  0  0  0  0  0  0
   37.7290   64.3710   55.4440 N   0  0  0  0  0  0  0  0  0  0  0  0
   38.1030   64.2280   54.0360 C   0  0  0  0  0  0  0  0  0  0  0  0
   37.0520   63.4620   53.2200 C   0  0  0  0  0  0  0  0  0  0  0  0
   35.6250   63.8700   53.6420 C   0  0  0  0  0  0  0  0  0  0  0  0
   34.5380   63.2320   52.8470 N   0  0  0  0  0  0  0  0  0  0  0  0
   33.2620   63.9550   53.0010 C   0  0  0  0  0  0  0  0  0  0  0  0
   32.0990   63.1280   52.4530 C   0  0  0  0  0  0  0  0  0  0  0  0
   32.4820   62.2050   51.2980 C   0  0  0  0  0  0  0  0  0  0  0  0
   33.6850   62.7050   50.4920 C   0  0  1  0  0  0  0  0  0  0  0  0
   34.8630   63.1340   51.4040 C   0  0  0  0  0  0  0  0  0  0  0  0
   34.0930   61.6500   49.4560 C   0  0  0  0  0  0  0  0  0  0  0  0
   34.5400   62.4450   48.2390 C   0  0  0  0  0  0  0  0  0  0  0  0
   36.0360   62.7660   48.2350 C   0  0  0  0  0  0  0  0  0  0  0  0
   34.1610   61.7390   46.9380 C   0  0  0  0  0  0  0  0  0  0  0  0
   33.8000   63.6690   48.3200 O   0  0  0  0  0  0  0  0  0  0  0  0
   33.3080   63.8570   49.5800 C   0  0  0  0  0  0  0  0  0  0  0  0
   32.6720   64.8480   49.9020 O   0  0  0  0  0  0  0  0  0  0  0  0
   35.4310   63.5690   55.1550 C   0  0  0  0  0  0  0  0  0  0  0  0
   36.7410   63.4230   55.9220 C   0  0  0  0  0  0  0  0  0  0  0  0
   40.4242   63.2833   62.4080 H   0  0  0  0  0  0  0  0  0  0  0  0
   39.3938   63.2702   60.9367 H   0  0  0  0  0  0  0  0  0  0  0  0
   40.9704   62.4094   60.9367 H   0  0  0  0  0  0  0  0  0  0  0  0
   40.5798   65.4273   61.2089 H   0  0  0  0  0  0  0  0  0  0  0  0
   42.1581   64.5316   61.1694 H   0  0  0  0  0  0  0  0  0  0  0  0
   41.1600   63.7550   58.8640 H   0  0  0  0  0  0  0  0  0  0  0  0
   41.2760   64.7730   57.0240 H   0  0  0  0  0  0  0  0  0  0  0  0
   41.2658   69.6936   53.5354 H   0  0  0  0  0  0  0  0  0  0  0  0
   39.4406   70.1201   51.8815 H   0  0  0  0  0  0  0  0  0  0  0  0
   37.3527   68.7835   51.9530 H   0  0  0  0  0  0  0  0  0  0  0  0
   37.0428   67.0272   53.6871 H   0  0  0  0  0  0  0  0  0  0  0  0
   38.2248   65.2307   53.6004 H   0  0  0  0  0  0  0  0  0  0  0  0
   39.0392   63.6519   53.9972 H   0  0  0  0  0  0  0  0  0  0  0  0
   37.1904   63.6872   52.1522 H   0  0  0  0  0  0  0  0  0  0  0  0
   37.1794   62.3851   53.4044 H   0  0  0  0  0  0  0  0  0  0  0  0
   35.5391   64.9479   53.4399 H   0  0  0  0  0  0  0  0  0  0  0  0
   33.0889   64.1575   54.0683 H   0  0  0  0  0  0  0  0  0  0  0  0
   33.3208   64.8974   52.4367 H   0  0  0  0  0  0  0  0  0  0  0  0
   31.6982   62.5108   53.2706 H   0  0  0  0  0  0  0  0  0  0  0  0
   31.3600   63.8410   52.0586 H   0  0  0  0  0  0  0  0  0  0  0  0
   32.7256   61.2144   51.7095 H   0  0  0  0  0  0  0  0  0  0  0  0
   31.6232   62.1708   50.6115 H   0  0  0  0  0  0  0  0  0  0  0  0
   35.6711   62.3971   51.2860 H   0  0  0  0  0  0  0  0  0  0  0  0
   35.1445   64.1481   51.0839 H   0  0  0  0  0  0  0  0  0  0  0  0
   34.9186   61.0318   49.8384 H   0  0  0  0  0  0  0  0  0  0  0  0
   33.2676   60.9624   49.2197 H   0  0  0  0  0  0  0  0  0  0  0  0
   36.3972   62.8435   49.2711 H   0  0  0  0  0  0  0  0  0  0  0  0
   36.5816   61.9645   47.7155 H   0  0  0  0  0  0  0  0  0  0  0  0
   36.2048   63.7208   47.7155 H   0  0  0  0  0  0  0  0  0  0  0  0
   33.6524   60.7916   47.1697 H   0  0  0  0  0  0  0  0  0  0  0  0
   33.4876   62.3834   46.3539 H   0  0  0  0  0  0  0  0  0  0  0  0
   35.0702   61.5338   46.3539 H   0  0  0  0  0  0  0  0  0  0  0  0
   34.8562   64.3932   55.6025 H   0  0  0  0  0  0  0  0  0  0  0  0
   34.9062   62.6050   55.2271 H   0  0  0  0  0  0  0  0  0  0  0  0
   36.5548   63.6050   56.9907 H   0  0  0  0  0  0  0  0  0  0  0  0
   37.1273   62.4047   55.7672 H   0  0  0  0  0  0  0  0  0  0  0  0
  1  2  1  0
  2  3  1  0
  3  4  1  0
  4  5  2  0
  4  6  1  0
  6  7  1  0
  7  8  1  0
  8  9  1  0
  9 10  2  0
 10 11  1  0
 11 12  2  0
 12 13  1  0
 13 14  2  0
 14 15  1  0
 15 16  1  0
 16 17  2  0
 16 18  1  0
 18 19  1  0
 19 20  1  0
 20 21  1  0
 21 22  1  0
 22 23  1  0
 23 24  1  0
 24 25  1  0
 26 25  1  1
 26 27  1  0
 26 28  1  0
 28 29  1  0
 29 30  1  0
 29 31  1  0
 29 32  1  0
 32 33  1  0
 33 34  2  0
 21 35  1  0
 35 36  1  0
 15  7  2  0
 36 18  1  0
 14  9  1  0
 27 22  1  0
 33 26  1  0
  1 37  1  0
  1 38  1  0
  1 39  1  0
  2 40  1  0
  2 41  1  0
  3 42  1  0
  6 43  1  0
 10 44  1  0
 11 45  1  0
 12 46  1  0
 13 47  1  0
 19 48  1  0
 19 49  1  0
 20 50  1  0
 20 51  1  0
 21 52  1  0
 23 53  1  0
 23 54  1  0
 24 55  1  0
 24 56  1  0
 25 57  1  0
 25 58  1  0
 27 59  1  0
 27 60  1  0
 28 61  1  0
 28 62  1  0
 30 63  1  0
 30 64  1  0
 30 65  1  0
 31 66  1  0
 31 67  1  0
 31 68  1  0
 35 69  1  0
 35 70  1  0
 36 71  1  0
 36 72  1  0
M  END
>  <meeko>  (11) 
{"is_sidechain": [false], "free_energy": -8.516, "intermolecular_energy": -10.564, "internal_energy": -1.132}

$$$$
seed-1003
     RDKit          3D

 72 76  0  0  0  0  0  0  0  0999 V2000
   37.7560   63.6260   45.7310 C   0  0  0  0  0  0  0  0  0  0  0  0
   36.8070   62.6950   46.4630 C   0  0  0  0  0  0  0  0  0  0  0  0
   36.0740   63.3810   47.5080 N   0  0  0  0  0  0  0  0  0  0  0  0
   35.0670   62.7420   48.2120 C   0  0  0  0  0  0  0  0  0  0  0  0
   34.7920   61.5660   48.0220 O   0  0  0  0  0  0  0  0  0  0  0  0
   34.4770   63.6140   49.1020 N   0  0  0  0  0  0  0  0  0  0  0  0
   33.4390   63.3500   49.9840 C   0  0  0  0  0  0  0  0  0  0  0  0
   31.8230   63.3540   49.4910 S   0  0  0  0  0  0  0  0  0  0  0  0
   31.2580   62.8350   51.0260 C   0  0  0  0  0  0  0  0  0  0  0  0
   29.9250   62.5500   51.3820 C   0  0  0  0  0  0  0  0  0  0  0  0
   29.6480   62.1070   52.6760 C   0  0  0  0  0  0  0  0  0  0  0  0
   30.6730   61.9440   53.5960 C   0  0  0  0  0  0  0  0  0  0  0  0
   31.9930   62.2360   53.2390 C   0  0  0  0  0  0  0  0  0  0  0  0
   32.3100   62.7090   51.9370 C   0  0  0  0  0  0  0  0  0  0  0  0
   33.5730   63.0950   51.3390 C   0  0  0  0  0  0  0  0  0  0  0  0
   34.8750   63.1580   52.0030 C   0  0  0  0  0  0  0  0  0  0  0  0
   35.7860   62.4100   51.6490 O   0  0  0  0  0  0  0  0  0  0  0  0
   35.0650   64.1350   52.9850 N   0  0  0  0  0  0  0  0  0  0  0  0
   34.2840   65.3710   53.0540 C   0  0  0  0  0  0  0  0  0  0  0  0
   35.1330   66.5860   53.4550 C   0  0  0  0  0  0  0  0  0  0  0  0
   36.5170   66.5380   52.7720 C   0  0  0  0  0  0  0  0  0  0  0  0
   37.3820   67.7200   53.0440 N   0  0  0  0  0  0  0  0  0  0  0  0
   38.6000   67.3380   53.7820 C   0  0  0  0  0  0  0  0  0  0  0  0
   39.3130   68.5740   54.3310 C   0  0  0  0  0  0  0  0  0  0  0  0
   39.1270   69.8290   53.4810 C   0  0  0  0  0  0  0  0  0  0  0  0
   38.8620   69.5280   52.0020 C   0  0  1  0  0  0  0  0  0  0  0  0
   37.7740   68.4420   51.8110 C   0  0  0  0  0  0  0  0  0  0  0  0
   38.5370   70.8300   51.2570 C   0  0  0  0  0  0  0  0  0  0  0  0
   39.1670   70.6630   49.8820 C   0  0  0  0  0  0  0  0  0  0  0  0
   38.2230   70.0470   48.8490 C   0  0  0  0  0  0  0  0  0  0  0  0
   39.7160   71.9890   49.3540 C   0  0  0  0  0  0  0  0  0  0  0  0
   40.2680   69.7730   50.0980 O   0  0  0  0  0  0  0  0  0  0  0  0
   40.1290   69.1060   51.2820 C   0  0  0  0  0  0  0  0  0  0  0  0
   40.9270   68.2670   51.6670 O   0  0  0  0  0  0  0  0  0  0  0  0
   37.2490   65.2300   53.1880 C   0  0  0  0  0  0  0  0  0  0  0  0
   36.3140   64.1500   53.7220 C   0  0  0  0  0  0  0  0  0  0  0  0
   38.3424   64.2012   46.4626 H   0  0  0  0  0  0  0  0  0  0  0  0
   38.4357   63.0346   45.0999 H   0  0  0  0  0  0  0  0  0  0  0  0
   37.1778   64.3169   45.0999 H   0  0  0  0  0  0  0  0  0  0  0  0
   36.0897   62.2787   45.7404 H   0  0  0  0  0  0  0  0  0  0  0  0
   37.4048   61.8998   46.9324 H   0  0  0  0  0  0  0  0  0  0  0  0
   36.0250   64.3870   47.4490 H   0  0  0  0  0  0  0  0  0  0  0  0
   34.9690   64.4850   49.2690 H   0  0  0  0  0  0  0  0  0  0  0  0
   29.1136   62.6750   50.6499 H   0  0  0  0  0  0  0  0  0  0  0  0
   28.6108   61.8858   52.9680 H   0  0  0  0  0  0  0  0  0  0  0  0
   30.4466   61.5836   54.6104 H   0  0  0  0  0  0  0  0  0  0  0  0
   32.7974   62.0976   53.9764 H   0  0  0  0  0  0  0  0  0  0  0  0
   33.8399   65.5625   52.0660 H   0  0  0  0  0  0  0  0  0  0  0  0
   33.5130   65.2345   53.8266 H   0  0  0  0  0  0  0  0  0  0  0  0
   34.6124   67.5059   53.1505 H   0  0  0  0  0  0  0  0  0  0  0  0
   35.2775   66.5705   54.5454 H   0  0  0  0  0  0  0  0  0  0  0  0
   36.3289   66.5579   51.6884 H   0  0  0  0  0  0  0  0  0  0  0  0
   38.3230   66.6801   54.6189 H   0  0  0  0  0  0  0  0  0  0  0  0
   39.2802   66.8158   53.0930 H   0  0  0  0  0  0  0  0  0  0  0  0
   38.9233   68.7785   55.3391 H   0  0  0  0  0  0  0  0  0  0  0  0
   40.3892   68.3464   54.3301 H   0  0  0  0  0  0  0  0  0  0  0  0
   38.2735   70.3969   53.8797 H   0  0  0  0  0  0  0  0  0  0  0  0
   40.0663   70.3991   53.5333 H   0  0  0  0  0  0  0  0  0  0  0  0
   36.8763   68.9277   51.4008 H   0  0  0  0  0  0  0  0  0  0  0  0
   38.2098   67.6871   51.1399 H   0  0  0  0  0  0  0  0  0  0  0  0
   37.4487   70.9647   51.1702 H   0  0  0  0  0  0  0  0  0  0  0  0
   38.9223   71.7154   51.7839 H   0  0  0  0  0  0  0  0  0  0  0  0
   37.4098   69.5164   49.3659 H   0  0  0  0  0  0  0  0  0  0  0  0
   37.7992   70.8429   48.2190 H   0  0  0  0  0  0  0  0  0  0  0  0
   38.7808   69.3386   48.2190 H   0  0  0  0  0  0  0  0  0  0  0  0
   39.9846   72.6378   50.2007 H   0  0  0  0  0  0  0  0  0  0  0  0
   40.6090   71.7979   48.7407 H   0  0  0  0  0  0  0  0  0  0  0  0
   38.9493   72.4851   48.7407 H   0  0  0  0  0  0  0  0  0  0  0  0
   37.7746   64.8308   52.3080 H   0  0  0  0  0  0  0  0  0  0  0  0
   37.9384   65.4920   54.0042 H   0  0  0  0  0  0  0  0  0  0  0  0
   36.8025   63.1695   53.6224 H   0  0  0  0  0  0  0  0  0  0  0  0
   36.0958   64.3655   54.7784 H   0  0  0  0  0  0  0  0  0  0  0  0
  1  2  1  0
  2  3  1  0
  3  4  1  0
  4  5  2  0
  4  6  1  0
  6  7  1  0
  7  8  1  0
  8  9  1  0
  9 10  2  0
 10 11  1  0
 11 12  2  0
 12 13  1  0
 13 14  2  0
 14 15  1  0
 15 16  1  0
 16 17  2  0
 16 18  1  0
 18 19  1  0
 19 20  1  0
 20 21  1  0
 21 22  1  0
 22 23  1  0
 23 24  1  0
 24 25  1  0
 26 25  1  1
 26 27  1  0
 26 28  1  0
 28 29  1  0
 29 30  1  0
 29 31  1  0
 29 32  1  0
 32 33  1  0
 33 34  2  0
 21 35  1  0
 35 36  1  0
 15  7  2  0
 36 18  1  0
 14  9  1  0
 27 22  1  0
 33 26  1  0
  1 37  1  0
  1 38  1  0
  1 39  1  0
  2 40  1  0
  2 41  1  0
  3 42  1  0
  6 43  1  0
 10 44  1  0
 11 45  1  0
 12 46  1  0
 13 47  1  0
 19 48  1  0
 19 49  1  0
 20 50  1  0
 20 51  1  0
 21 52  1  0
 23 53  1  0
 23 54  1  0
 24 55  1  0
 24 56  1  0
 25 57  1  0
 25 58  1  0
 27 59  1  0
 27 60  1  0
 28 61  1  0
 28 62  1  0
 30 63  1  0
 30 64  1  0
 30 65  1  0
 31 66  1  0
 31 67  1  0
 31 68  1  0
 35 69  1  0
 35 70  1  0
 36 71  1  0
 36 72  1  0
M  END
>  <meeko>  (12) 
{"is_sidechain": [false], "free_energy": -8.501, "intermolecular_energy": -10.231, "internal_energy": -1.446}

$$$$
seed-1003
     RDKit          3D

 72 76  0  0  0  0  0  0  0  0999 V2000
   42.4520   70.9250   57.6410 C   0  0  0  0  0  0  0  0  0  0  0  0
   42.8370   70.3990   59.0120 C   0  0  0  0  0  0  0  0  0  0  0  0
   41.9520   69.3410   59.4540 N   0  0  0  0  0  0  0  0  0  0  0  0
   42.2640   68.0090   59.2310 C   0  0  0  0  0  0  0  0  0  0  0  0
   43.3150   67.6710   58.7060 O   0  0  0  0  0  0  0  0  0  0  0  0
   41.2450   67.1970   59.6820 N   0  0  0  0  0  0  0  0  0  0  0  0
   41.1860   65.8120   59.6410 C   0  0  0  0  0  0  0  0  0  0  0  0
   41.7830   64.8520   60.8970 S   0  0  0  0  0  0  0  0  0  0  0  0
   41.2300   63.3990   60.1720 C   0  0  0  0  0  0  0  0  0  0  0  0
   41.3300   62.0990   60.7060 C   0  0  0  0  0  0  0  0  0  0  0  0
   40.7940   61.0270   59.9890 C   0  0  0  0  0  0  0  0  0  0  0  0
   40.1670   61.2420   58.7720 C   0  0  0  0  0  0  0  0  0  0  0  0
   40.0770   62.5340   58.2440 C   0  0  0  0  0  0  0  0  0  0  0  0
   40.6290   63.6450   58.9350 C   0  0  0  0  0  0  0  0  0  0  0  0
   40.6850   65.0540   58.5950 C   0  0  0  0  0  0  0  0  0  0  0  0
   40.2210   65.6760   57.3550 C   0  0  0  0  0  0  0  0  0  0  0  0
   40.9910   65.8060   56.4040 O   0  0  0  0  0  0  0  0  0  0  0  0
   38.8730   66.0400   57.2670 N   0  0  0  0  0  0  0  0  0  0  0  0
   37.8190   65.4250   58.0740 C   0  0  0  0  0  0  0  0  0  0  0  0
   36.5190   65.2100   57.2840 C   0  0  0  0  0  0  0  0  0  0  0  0
   36.8220   64.7340   55.8470 C   0  0  0  0  0  0  0  0  0  0  0  0
   35.6150   64.4260   55.0310 N   0  0  0  0  0  0  0  0  0  0  0  0
   34.8050   65.6340   54.7880 C   0  0  0  0  0  0  0  0  0  0  0  0
   33.4280   65.2650   54.2370 C   0  0  0  0  0  0  0  0  0  0  0  0
   33.4140   63.9850   53.4030 C   0  0  0  0  0  0  0  0  0  0  0  0
   34.7600   63.6790   52.7380 C   0  0  1  0  0  0  0  0  0  0  0  0
   35.9450   63.8000   53.7280 C   0  0  0  0  0  0  0  0  0  0  0  0
   34.7000   62.3070   52.0520 C   0  0  0  0  0  0  0  0  0  0  0  0
   35.5350   62.4620   50.7900 C   0  0  0  0  0  0  0  0  0  0  0  0
   37.0090   62.1000   50.9850 C   0  0  0  0  0  0  0  0  0  0  0  0
   34.9540   61.6520   49.6310 C   0  0  0  0  0  0  0  0  0  0  0  0
   35.4350   63.8520   50.4630 O   0  0  0  0  0  0  0  0  0  0  0  0
   35.0080   64.5760   51.5400 C   0  0  0  0  0  0  0  0  0  0  0  0
   34.8800   65.7890   51.5150 O   0  0  0  0  0  0  0  0  0  0  0  0
   37.6980   65.7990   55.1280 C   0  0  0  0  0  0  0  0  0  0  0  0
   38.4180   66.7460   56.0850 C   0  0  0  0  0  0  0  0  0  0  0  0
   41.8058   71.8078   57.7552 H   0  0  0  0  0  0  0  0  0  0  0  0
   43.3604   71.2046   57.0872 H   0  0  0  0  0  0  0  0  0  0  0  0
   41.9109   70.1437   57.0872 H   0  0  0  0  0  0  0  0  0  0  0  0
   43.8640   70.0076   58.9669 H   0  0  0  0  0  0  0  0  0  0  0  0
   42.7595   71.2294   59.7292 H   0  0  0  0  0  0  0  0  0  0  0  0
   40.9760   69.5720   59.5580 H   0  0  0  0  0  0  0  0  0  0  0  0
   40.5500   67.6380   60.2750 H   0  0  0  0  0  0  0  0  0  0  0  0
   41.8236   61.9307   61.6745 H   0  0  0  0  0  0  0  0  0  0  0  0
   40.8699   60.0065   60.3925 H   0  0  0  0  0  0  0  0  0  0  0  0
   39.7384   60.3931   58.2191 H   0  0  0  0  0  0  0  0  0  0  0  0
   39.5715   62.6918   57.2799 H   0  0  0  0  0  0  0  0  0  0  0  0
   38.1764   64.4498   58.4362 H   0  0  0  0  0  0  0  0  0  0  0  0
   37.5941   66.1092   58.9054 H   0  0  0  0  0  0  0  0  0  0  0  0
   35.9086   64.4503   57.7942 H   0  0  0  0  0  0  0  0  0  0  0  0
   35.9767   66.1656   57.2315 H   0  0  0  0  0  0  0  0  0  0  0  0
   37.3603   63.7796   55.9435 H   0  0  0  0  0  0  0  0  0  0  0  0
   34.6797   66.1801   55.7346 H   0  0  0  0  0  0  0  0  0  0  0  0
   35.3231   66.2618   54.0481 H   0  0  0  0  0  0  0  0  0  0  0  0
   32.7404   65.1325   55.0853 H   0  0  0  0  0  0  0  0  0  0  0  0
   33.1235   66.0835   53.5682 H   0  0  0  0  0  0  0  0  0  0  0  0
   33.1501   63.1432   54.0601 H   0  0  0  0  0  0  0  0  0  0  0  0
   32.6786   64.1294   52.5978 H   0  0  0  0  0  0  0  0  0  0  0  0
   36.3300   62.7884   53.9238 H   0  0  0  0  0  0  0  0  0  0  0  0
   36.6793   64.4629   53.2471 H   0  0  0  0  0  0  0  0  0  0  0  0
   35.1251   61.5297   52.7040 H   0  0  0  0  0  0  0  0  0  0  0  0
   33.6672   62.0007   51.8295 H   0  0  0  0  0  0  0  0  0  0  0  0
   37.2338   62.0448   52.0604 H   0  0  0  0  0  0  0  0  0  0  0  0
   37.2121   61.1253   50.5174 H   0  0  0  0  0  0  0  0  0  0  0  0
   37.6406   62.8697   50.5174 H   0  0  0  0  0  0  0  0  0  0  0  0
   34.3564   60.8188   50.0293 H   0  0  0  0  0  0  0  0  0  0  0  0
   34.3140   62.3007   49.0149 H   0  0  0  0  0  0  0  0  0  0  0  0
   35.7736   61.2537   49.0149 H   0  0  0  0  0  0  0  0  0  0  0  0
   38.4531   65.2766   54.5222 H   0  0  0  0  0  0  0  0  0  0  0  0
   37.0213   66.4128   54.5154 H   0  0  0  0  0  0  0  0  0  0  0  0
   39.2859   67.1855   55.5716 H   0  0  0  0  0  0  0  0  0  0  0  0
   37.7154   67.5336   56.3948 H   0  0  0  0  0  0  0  0  0  0  0  0
  1  2  1  0
  2  3  1  0
  3  4  1  0
  4  5  2  0
  4  6  1  0
  6  7  1  0
  7  8  1  0
  8  9  1  0
  9 10  2  0
 10 11  1  0
 11 12  2  0
 12 13  1  0
 13 14  2  0
 14 15  1  0
 15 16  1  0
 16 17  2  0
 16 18  1  0
 18 19  1  0
 19 20  1  0
 20 21  1  0
 21 22  1  0
 22 23  1  0
 23 24  1  0
 24 25  1  0
 26 25  1  1
 26 27  1  0
 26 28  1  0
 28 29  1  0
 29 30  1  0
 29 31  1  0
 29 32  1  0
 32 33  1  0
 33 34  2  0
 21 35  1  0
 35 36  1  0
 15  7  2  0
 36 18  1  0
 14  9  1  0
 27 22  1  0
 33 26  1  0
  1 37  1  0
  1 38  1  0
  1 39  1  0
  2 40  1  0
  2 41  1  0
  3 42  1  0
  6 43  1  0
 10 44  1  0
 11 45  1  0
 12 46  1  0
 13 47  1  0
 19 48  1  0
 19 49  1  0
 20 50  1  0
 20 51  1  0
 21 52  1  0
 23 53  1  0
 23 54  1  0
 24 55  1  0
 24 56  1  0
 25 57  1  0
 25 58  1  0
 27 59  1  0
 27 60  1  0
 28 61  1  0
 28 62  1  0
 30 63  1  0
 30 64  1  0
 30 65  1  0
 31 66  1  0
 31 67  1  0
 31 68  1  0
 35 69  1  0
 35 70  1  0
 36 71  1  0
 36 72  1  0
M  END
>  <meeko>  (13) 
{"is_sidechain": [false], "free_energy": -8.14, "intermolecular_energy": -9.914, "internal_energy": -1.318}

$$$$
seed-1003
     RDKit          3D

 72 76  0  0  0  0  0  0  0  0999 V2000
   40.6580   66.0250   46.7510 C   0  0  0  0  0  0  0  0  0  0  0  0
   41.0100   67.3800   47.3380 C   0  0  0  0  0  0  0  0  0  0  0  0
   41.1340   67.3310   48.7800 N   0  0  0  0  0  0  0  0  0  0  0  0
   41.5930   68.4240   49.4970 C   0  0  0  0  0  0  0  0  0  0  0  0
   41.8580   69.4870   48.9530 O   0  0  0  0  0  0  0  0  0  0  0  0
   41.6850   68.1150   50.8370 N   0  0  0  0  0  0  0  0  0  0  0  0
   42.0980   68.9430   51.8700 C   0  0  0  0  0  0  0  0  0  0  0  0
   43.7330   69.1870   52.2210 S   0  0  0  0  0  0  0  0  0  0  0  0
   43.3930   70.3540   53.4320 C   0  0  0  0  0  0  0  0  0  0  0  0
   44.3320   71.0890   54.1830 C   0  0  0  0  0  0  0  0  0  0  0  0
   43.8740   72.0260   55.1120 C   0  0  0  0  0  0  0  0  0  0  0  0
   42.5150   72.2340   55.2860 C   0  0  0  0  0  0  0  0  0  0  0  0
   41.5880   71.4960   54.5430 C   0  0  0  0  0  0  0  0  0  0  0  0
   42.0160   70.5200   53.6050 C   0  0  0  0  0  0  0  0  0  0  0  0
   41.2670   69.6260   52.7430 C   0  0  0  0  0  0  0  0  0  0  0  0
   39.8140   69.4670   52.6950 C   0  0  0  0  0  0  0  0  0  0  0  0
   39.1910   69.7800   51.6810 O   0  0  0  0  0  0  0  0  0  0  0  0
   39.1800   68.8840   53.7980 N   0  0  0  0  0  0  0  0  0  0  0  0
   39.8610   67.9970   54.7420 C   0  0  0  0  0  0  0  0  0  0  0  0
   38.9780   66.8260   55.1960 C   0  0  0  0  0  0  0  0  0  0  0  0
   38.1520   66.2720   54.0160 C   0  0  0  0  0  0  0  0  0  0  0  0
   37.3210   65.0800   54.3480 N   0  0  0  0  0  0  0  0  0  0  0  0
   36.8660   65.1150   55.7490 C   0  0  0  0  0  0  0  0  0  0  0  0
   36.2970   63.7600   56.1710 C   0  0  0  0  0  0  0  0  0  0  0  0
   35.6530   62.9740   55.0300 C   0  0  0  0  0  0  0  0  0  0  0  0
   35.1130   63.8650   53.9060 C   0  0  1  0  0  0  0  0  0  0  0  0
   36.1410   64.9370   53.4630 C   0  0  0  0  0  0  0  0  0  0  0  0
   34.6270   62.9940   52.7400 C   0  0  0  0  0  0  0  0  0  0  0  0
   33.4040   63.7160   52.1940 C   0  0  0  0  0  0  0  0  0  0  0  0
   33.7290   64.7110   51.0790 C   0  0  0  0  0  0  0  0  0  0  0  0
   32.3410   62.7290   51.7110 C   0  0  0  0  0  0  0  0  0  0  0  0
   32.8780   64.4300   53.3190 O   0  0  0  0  0  0  0  0  0  0  0  0
   33.8160   64.5440   54.3050 C   0  0  0  0  0  0  0  0  0  0  0  0
   33.6120   65.1430   55.3480 O   0  0  0  0  0  0  0  0  0  0  0  0
   37.2570   67.4060   53.4390 C   0  0  0  0  0  0  0  0  0  0  0  0
   37.7320   68.8070   53.8100 C   0  0  0  0  0  0  0  0  0  0  0  0
   40.4722   65.3096   47.5656 H   0  0  0  0  0  0  0  0  0  0  0  0
   39.7541   66.1176   46.1310 H   0  0  0  0  0  0  0  0  0  0  0  0
   41.4927   65.6660   46.1310 H   0  0  0  0  0  0  0  0  0  0  0  0
   41.9667   67.7145   46.9105 H   0  0  0  0  0  0  0  0  0  0  0  0
   40.1974   68.0789   47.0905 H   0  0  0  0  0  0  0  0  0  0  0  0
   41.2640   66.4220   49.1990 H   0  0  0  0  0  0  0  0  0  0  0  0
   41.2280   67.2590   51.1310 H   0  0  0  0  0  0  0  0  0  0  0  0
   45.4105   70.9270   54.0396 H   0  0  0  0  0  0  0  0  0  0  0  0
   44.5962   72.6022   55.7090 H   0  0  0  0  0  0  0  0  0  0  0  0
   42.1639   72.9826   56.0115 H   0  0  0  0  0  0  0  0  0  0  0  0
   40.5122   71.6743   54.6874 H   0  0  0  0  0  0  0  0  0  0  0  0
   40.7615   67.5917   54.2573 H   0  0  0  0  0  0  0  0  0  0  0  0
   40.1116   68.5899   55.6340 H   0  0  0  0  0  0  0  0  0  0  0  0
   39.6181   66.0255   55.5953 H   0  0  0  0  0  0  0  0  0  0  0  0
   38.2863   67.1864   55.9717 H   0  0  0  0  0  0  0  0  0  0  0  0
   38.8779   65.9219   53.2673 H   0  0  0  0  0  0  0  0  0  0  0  0
   37.7177   65.3661   56.3983 H   0  0  0  0  0  0  0  0  0  0  0  0
   36.0749   65.8735   55.8431 H   0  0  0  0  0  0  0  0  0  0  0  0
   37.1160   63.1557   56.5883 H   0  0  0  0  0  0  0  0  0  0  0  0
   35.5036   63.9627   56.9054 H   0  0  0  0  0  0  0  0  0  0  0  0
   36.4071   62.2952   54.6051 H   0  0  0  0  0  0  0  0  0  0  0  0
   34.7957   62.4302   55.4536 H   0  0  0  0  0  0  0  0  0  0  0  0
   36.4993   64.6706   52.4577 H   0  0  0  0  0  0  0  0  0  0  0  0
   35.6127   65.9012   53.4986 H   0  0  0  0  0  0  0  0  0  0  0  0
   35.4055   62.9129   51.9671 H   0  0  0  0  0  0  0  0  0  0  0  0
   34.3932   61.9678   53.0596 H   0  0  0  0  0  0  0  0  0  0  0  0
   34.0417   65.6683   51.5215 H   0  0  0  0  0  0  0  0  0  0  0  0
   34.5433   64.3113   50.4568 H   0  0  0  0  0  0  0  0  0  0  0  0
   32.8358   64.8690   50.4568 H   0  0  0  0  0  0  0  0  0  0  0  0
   31.8460   62.2694   52.5791 H   0  0  0  0  0  0  0  0  0  0  0  0
   31.5950   63.2619   51.1032 H   0  0  0  0  0  0  0  0  0  0  0  0
   32.8172   61.9456   51.1032 H   0  0  0  0  0  0  0  0  0  0  0  0
   37.2505   67.3200   52.3424 H   0  0  0  0  0  0  0  0  0  0  0  0
   36.2548   67.2792   53.8744 H   0  0  0  0  0  0  0  0  0  0  0  0
   37.3272   69.5281   53.0846 H   0  0  0  0  0  0  0  0  0  0  0  0
   37.3766   69.0408   54.8244 H   0  0  0  0  0  0  0  0  0  0  0  0
  1  2  1  0
  2  3  1  0
  3  4  1  0
  4  5  2  0
  4  6  1  0
  6  7  1  0
  7  8  1  0
  8  9  1  0
  9 10  2  0
 10 11  1  0
 11 12  2  0
 12 13  1  0
 13 14  2  0
 14 15  1  0
 15 16  1  0
 16 17  2  0
 16 18  1  0
 18 19  1  0
 19 20  1  0
 20 21  1  0
 21 22  1  0
 22 23  1  0
 23 24  1  0
 24 25  1  0
 26 25  1  1
 26 27  1  0
 26 28  1  0
 28 29  1  0
 29 30  1  0
 29 31  1  0
 29 32  1  0
 32 33  1  0
 33 34  2  0
 21 35  1  0
 35 36  1  0
 15  7  2  0
 36 18  1  0
 14  9  1  0
 27 22  1  0
 33 26  1  0
  1 37  1  0
  1 38  1  0
  1 39  1  0
  2 40  1  0
  2 41  1  0
  3 42  1  0
  6 43  1  0
 10 44  1  0
 11 45  1  0
 12 46  1  0
 13 47  1  0
 19 48  1  0
 19 49  1  0
 20 50  1  0
 20 51  1  0
 21 52  1  0
 23 53  1  0
 23 54  1  0
 24 55  1  0
 24 56  1  0
 25 57  1  0
 25 58  1  0
 27 59  1  0
 27 60  1  0
 28 61  1  0
 28 62  1  0
 30 63  1  0
 30 64  1  0
 30 65  1  0
 31 66  1  0
 31 67  1  0
 31 68  1  0
 35 69  1  0
 35 70  1  0
 36 71  1  0
 36 72  1  0
M  END
>  <meeko>  (14) 
{"is_sidechain": [false], "free_energy": -7.662, "intermolecular_energy": -9.173, "internal_energy": -1.47}

$$$$
seed-1003
     RDKit          3D

 72 76  0  0  0  0  0  0  0  0999 V2000
   37.7360   63.7920   45.6860 C   0  0  0  0  0  0  0  0  0  0  0  0
   36.8570   62.7920   46.4140 C   0  0  0  0  0  0  0  0  0  0  0  0
   36.2230   63.3740   47.5790 N   0  0  0  0  0  0  0  0  0  0  0  0
   35.0780   62.8170   48.1230 C   0  0  0  0  0  0  0  0  0  0  0  0
   34.5880   61.7870   47.6810 O   0  0  0  0  0  0  0  0  0  0  0  0
   34.6280   63.5810   49.1790 N   0  0  0  0  0  0  0  0  0  0  0  0
   33.5170   63.3510   49.9770 C   0  0  0  0  0  0  0  0  0  0  0  0
   31.9530   63.2960   49.3400 S   0  0  0  0  0  0  0  0  0  0  0  0
   31.2570   62.8590   50.8460 C   0  0  0  0  0  0  0  0  0  0  0  0
   29.9000   62.5710   51.0970 C   0  0  0  0  0  0  0  0  0  0  0  0
   29.5120   62.2000   52.3860 C   0  0  0  0  0  0  0  0  0  0  0  0
   30.4510   62.1100   53.4020 C   0  0  0  0  0  0  0  0  0  0  0  0
   31.7940   62.4040   53.1490 C   0  0  0  0  0  0  0  0  0  0  0  0
   32.2220   62.8050   51.8550 C   0  0  0  0  0  0  0  0  0  0  0  0
   33.5300   63.1780   51.3520 C   0  0  0  0  0  0  0  0  0  0  0  0
   34.7650   63.3030   52.1260 C   0  0  0  0  0  0  0  0  0  0  0  0
   35.5020   62.3290   52.2740 O   0  0  0  0  0  0  0  0  0  0  0  0
   35.1070   64.5670   52.6170 N   0  0  0  0  0  0  0  0  0  0  0  0
   34.6260   65.8170   52.0280 C   0  0  0  0  0  0  0  0  0  0  0  0
   35.7010   66.9130   52.0050 C   0  0  0  0  0  0  0  0  0  0  0  0
   37.0800   66.3220   51.6400 C   0  0  0  0  0  0  0  0  0  0  0  0
   38.1710   67.3290   51.5190 N   0  0  0  0  0  0  0  0  0  0  0  0
   38.4250   67.6820   50.1100 C   0  0  0  0  0  0  0  0  0  0  0  0
   39.7360   68.4550   49.9700 C   0  0  0  0  0  0  0  0  0  0  0  0
   40.0940   69.2990   51.1920 C   0  0  0  0  0  0  0  0  0  0  0  0
   38.8730   69.7410   52.0040 C   0  0  1  0  0  0  0  0  0  0  0  0
   37.8980   68.5690   52.2820 C   0  0  0  0  0  0  0  0  0  0  0  0
   39.3300   70.4480   53.2880 C   0  0  0  0  0  0  0  0  0  0  0  0
   38.3110   71.5540   53.5110 C   0  0  0  0  0  0  0  0  0  0  0  0
   37.1280   71.1280   54.3820 C   0  0  0  0  0  0  0  0  0  0  0  0
   38.9620   72.8040   54.1030 C   0  0  0  0  0  0  0  0  0  0  0  0
   37.8340   71.8730   52.1990 O   0  0  0  0  0  0  0  0  0  0  0  0
   38.1240   70.8690   51.3200 C   0  0  0  0  0  0  0  0  0  0  0  0
   37.7870   70.8970   50.1470 O   0  0  0  0  0  0  0  0  0  0  0  0
   37.4650   65.2350   52.6830 C   0  0  0  0  0  0  0  0  0  0  0  0
   36.2750   64.6920   53.4670 C   0  0  0  0  0  0  0  0  0  0  0  0
   38.2769   64.4073   46.4200 H   0  0  0  0  0  0  0  0  0  0  0  0
   38.4587   63.2538   45.0551 H   0  0  0  0  0  0  0  0  0  0  0  0
   37.1096   64.4397   45.0551 H   0  0  0  0  0  0  0  0  0  0  0  0
   36.0764   62.4375   45.7248 H   0  0  0  0  0  0  0  0  0  0  0  0
   37.4950   61.9626   46.7532 H   0  0  0  0  0  0  0  0  0  0  0  0
   36.3750   64.3580   47.7400 H   0  0  0  0  0  0  0  0  0  0  0  0
   35.2720   64.2790   49.5320 H   0  0  0  0  0  0  0  0  0  0  0  0
   29.1571   62.6376   50.2885 H   0  0  0  0  0  0  0  0  0  0  0  0
   28.4554   61.9779   52.5965 H   0  0  0  0  0  0  0  0  0  0  0  0
   30.1378   61.8059   54.4117 H   0  0  0  0  0  0  0  0  0  0  0  0
   32.5295   62.3238   53.9630 H   0  0  0  0  0  0  0  0  0  0  0  0
   34.3038   65.6183   50.9952 H   0  0  0  0  0  0  0  0  0  0  0  0
   33.7949   66.1796   52.6506 H   0  0  0  0  0  0  0  0  0  0  0  0
   35.4254   67.6727   51.2587 H   0  0  0  0  0  0  0  0  0  0  0  0
   35.7651   67.3646   53.0060 H   0  0  0  0  0  0  0  0  0  0  0  0
   36.9744   65.8848   50.6361 H   0  0  0  0  0  0  0  0  0  0  0  0
   38.4847   66.7602   49.5128 H   0  0  0  0  0  0  0  0  0  0  0  0
   37.6017   68.3181   49.7528 H   0  0  0  0  0  0  0  0  0  0  0  0
   40.5472   67.7319   49.7995 H   0  0  0  0  0  0  0  0  0  0  0  0
   39.6058   69.1522   49.1292 H   0  0  0  0  0  0  0  0  0  0  0  0
   40.7512   68.7060   51.8451 H   0  0  0  0  0  0  0  0  0  0  0  0
   40.5871   70.2109   50.8241 H   0  0  0  0  0  0  0  0  0  0  0  0
   37.9518   68.3281   53.3540 H   0  0  0  0  0  0  0  0  0  0  0  0
   36.9047   68.9143   51.9594 H   0  0  0  0  0  0  0  0  0  0  0  0
   39.3319   69.7471   54.1358 H   0  0  0  0  0  0  0  0  0  0  0  0
   40.3541   70.8403   53.2020 H   0  0  0  0  0  0  0  0  0  0  0  0
   37.4000   71.2260   55.4433 H   0  0  0  0  0  0  0  0  0  0  0  0
   36.2623   71.7709   54.1645 H   0  0  0  0  0  0  0  0  0  0  0  0
   36.8709   70.0808   54.1645 H   0  0  0  0  0  0  0  0  0  0  0  0
   38.9326   72.7476   55.2012 H   0  0  0  0  0  0  0  0  0  0  0  0
   40.0075   72.8671   53.7669 H   0  0  0  0  0  0  0  0  0  0  0  0
   38.4143   73.6968   53.7669 H   0  0  0  0  0  0  0  0  0  0  0  0
   37.9431   64.3982   52.1527 H   0  0  0  0  0  0  0  0  0  0  0  0
   38.1401   65.7103   53.4098 H   0  0  0  0  0  0  0  0  0  0  0  0
   36.5325   63.7024   53.8725 H   0  0  0  0  0  0  0  0  0  0  0  0
   36.0424   65.3933   54.2819 H   0  0  0  0  0  0  0  0  0  0  0  0
  1  2  1  0
  2  3  1  0
  3  4  1  0
  4  5  2  0
  4  6  1  0
  6  7  1  0
  7  8  1  0
  8  9  1  0
  9 10  2  0
 10 11  1  0
 11 12  2  0
 12 13  1  0
 13 14  2  0
 14 15  1  0
 15 16  1  0
 16 17  2  0
 16 18  1  0
 18 19  1  0
 19 20  1  0
 20 21  1  0
 21 22  1  0
 22 23  1  0
 23 24  1  0
 24 25  1  0
 26 25  1  6
 26 27  1  0
 26 28  1  0
 28 29  1  0
 29 30  1  0
 29 31  1  0
 29 32  1  0
 32 33  1  0
 33 34  2  0
 21 35  1  0
 35 36  1  0
 15  7  2  0
 36 18  1  0
 14  9  1  0
 27 22  1  0
 33 26  1  0
  1 37  1  0
  1 38  1  0
  1 39  1  0
  2 40  1  0
  2 41  1  0
  3 42  1  0
  6 43  1  0
 10 44  1  0
 11 45  1  0
 12 46  1  0
 13 47  1  0
 19 48  1  0
 19 49  1  0
 20 50  1  0
 20 51  1  0
 21 52  1  0
 23 53  1  0
 23 54  1  0
 24 55  1  0
 24 56  1  0
 25 57  1  0
 25 58  1  0
 27 59  1  0
 27 60  1  0
 28 61  1  0
 28 62  1  0
 30 63  1  0
 30 64  1  0
 30 65  1  0
 31 66  1  0
 31 67  1  0
 31 68  1  0
 35 69  1  0
 35 70  1  0
 36 71  1  0
 36 72  1  0
M  END
>  <meeko>  (15) 
{"is_sidechain": [false], "free_energy": -7.609, "intermolecular_energy": -9.422, "internal_energy": -1.154}

$$$$
seed-1003
     RDKit          3D

 72 76  0  0  0  0  0  0  0  0999 V2000
   38.4320   62.7490   44.8190 C   0  0  0  0  0  0  0  0  0  0  0  0
   37.6010   61.8510   45.7160 C   0  0  0  0  0  0  0  0  0  0  0  0
   37.0000   62.5840   46.8110 N   0  0  0  0  0  0  0  0  0  0  0  0
   35.7350   62.2640   47.2770 C   0  0  0  0  0  0  0  0  0  0  0  0
   35.1000   61.3220   46.8250 O   0  0  0  0  0  0  0  0  0  0  0  0
   35.3550   63.1390   48.2730 N   0  0  0  0  0  0  0  0  0  0  0  0
   34.1660   63.1440   48.9860 C   0  0  0  0  0  0  0  0  0  0  0  0
   32.7110   63.6600   48.2970 S   0  0  0  0  0  0  0  0  0  0  0  0
   31.7990   63.2420   49.6890 C   0  0  0  0  0  0  0  0  0  0  0  0
   30.4020   63.3480   49.8450 C   0  0  0  0  0  0  0  0  0  0  0  0
   29.8200   62.9300   51.0430 C   0  0  0  0  0  0  0  0  0  0  0  0
   30.6050   62.4140   52.0620 C   0  0  0  0  0  0  0  0  0  0  0  0
   31.9910   62.3190   51.9040 C   0  0  0  0  0  0  0  0  0  0  0  0
   32.6210   62.7530   50.7080 C   0  0  0  0  0  0  0  0  0  0  0  0
   34.0160   62.7800   50.3140 C   0  0  0  0  0  0  0  0  0  0  0  0
   35.1670   62.4110   51.1390 C   0  0  0  0  0  0  0  0  0  0  0  0
   36.0330   61.6600   50.6910 O   0  0  0  0  0  0  0  0  0  0  0  0
   35.2820   62.9950   52.4040 N   0  0  0  0  0  0  0  0  0  0  0  0
   34.6560   64.2670   52.7640 C   0  0  0  0  0  0  0  0  0  0  0  0
   35.5520   65.1370   53.6580 C   0  0  0  0  0  0  0  0  0  0  0  0
   37.0250   65.0590   53.2010 C   0  0  0  0  0  0  0  0  0  0  0  0
   37.9570   65.9330   53.9660 N   0  0  0  0  0  0  0  0  0  0  0  0
   37.2720   67.1360   54.4740 C   0  0  0  0  0  0  0  0  0  0  0  0
   38.2830   68.1690   54.9710 C   0  0  0  0  0  0  0  0  0  0  0  0
   39.5730   67.5630   55.5210 C   0  0  0  0  0  0  0  0  0  0  0  0
   39.3900   66.1460   56.0750 C   0  0  1  0  0  0  0  0  0  0  0  0
   38.6020   65.2330   55.1010 C   0  0  0  0  0  0  0  0  0  0  0  0
   40.7540   65.5590   56.4620 C   0  0  0  0  0  0  0  0  0  0  0  0
   40.4850   64.7280   57.7070 C   0  0  0  0  0  0  0  0  0  0  0  0
   40.1450   63.2680   57.4050 C   0  0  0  0  0  0  0  0  0  0  0  0
   41.6570   64.7930   58.6870 C   0  0  0  0  0  0  0  0  0  0  0  0
   39.3520   65.3550   58.3180 O   0  0  0  0  0  0  0  0  0  0  0  0
   38.7010   66.1580   57.4260 C   0  0  0  0  0  0  0  0  0  0  0  0
   37.6830   66.7710   57.7050 O   0  0  0  0  0  0  0  0  0  0  0  0
   37.5030   63.5800   53.2620 C   0  0  0  0  0  0  0  0  0  0  0  0
   36.3620   62.5680   53.2740 C   0  0  0  0  0  0  0  0  0  0  0  0
   39.0493   63.4161   45.4386 H   0  0  0  0  0  0  0  0  0  0  0  0
   39.0838   62.1310   44.1840 H   0  0  0  0  0  0  0  0  0  0  0  0
   37.7654   63.3510   44.1840 H   0  0  0  0  0  0  0  0  0  0  0  0
   36.8022   61.3909   45.1159 H   0  0  0  0  0  0  0  0  0  0  0  0
   38.2675   61.0875   46.1436 H   0  0  0  0  0  0  0  0  0  0  0  0
   37.3160   63.5310   46.9570 H   0  0  0  0  0  0  0  0  0  0  0  0
   36.0880   63.7240   48.6580 H   0  0  0  0  0  0  0  0  0  0  0  0
   29.7794   63.7543   49.0343 H   0  0  0  0  0  0  0  0  0  0  0  0
   28.7314   63.0107   51.1791 H   0  0  0  0  0  0  0  0  0  0  0  0
   30.1359   62.0780   52.9985 H   0  0  0  0  0  0  0  0  0  0  0  0
   32.6021   61.9020   52.7181 H   0  0  0  0  0  0  0  0  0  0  0  0
   34.4334   64.8231   51.8414 H   0  0  0  0  0  0  0  0  0  0  0  0
   33.7421   64.0384   53.3319 H   0  0  0  0  0  0  0  0  0  0  0  0
   35.2119   66.1816   53.6016 H   0  0  0  0  0  0  0  0  0  0  0  0
   35.4838   64.7670   54.6916 H   0  0  0  0  0  0  0  0  0  0  0  0
   37.0502   65.4399   52.1694 H   0  0  0  0  0  0  0  0  0  0  0  0
   36.6730   67.5785   53.6644 H   0  0  0  0  0  0  0  0  0  0  0  0
   36.6250   66.8441   55.3144 H   0  0  0  0  0  0  0  0  0  0  0  0
   38.5424   68.8306   54.1313 H   0  0  0  0  0  0  0  0  0  0  0  0
   37.8048   68.7069   55.8028 H   0  0  0  0  0  0  0  0  0  0  0  0
   40.3153   67.5275   54.7100 H   0  0  0  0  0  0  0  0  0  0  0  0
   39.9011   68.1991   56.3563 H   0  0  0  0  0  0  0  0  0  0  0  0
   39.3010   64.4897   54.6900 H   0  0  0  0  0  0  0  0  0  0  0  0
   37.7862   64.7887   55.6902 H   0  0  0  0  0  0  0  0  0  0  0  0
   41.1467   64.9265   55.6522 H   0  0  0  0  0  0  0  0  0  0  0  0
   41.5052   66.3421   56.6419 H   0  0  0  0  0  0  0  0  0  0  0  0
   40.0170   62.7184   58.3493 H   0  0  0  0  0  0  0  0  0  0  0  0
   39.2120   63.2214   56.8243 H   0  0  0  0  0  0  0  0  0  0  0  0
   40.9614   62.8140   56.8243 H   0  0  0  0  0  0  0  0  0  0  0  0
   41.2744   64.7718   59.7181 H   0  0  0  0  0  0  0  0  0  0  0  0
   42.3196   63.9302   58.5239 H   0  0  0  0  0  0  0  0  0  0  0  0
   42.2201   65.7238   58.5239 H   0  0  0  0  0  0  0  0  0  0  0  0
   38.1337   63.3821   52.3828 H   0  0  0  0  0  0  0  0  0  0  0  0
   38.0517   63.4578   54.2075 H   0  0  0  0  0  0  0  0  0  0  0  0
   36.7401   61.5948   52.9277 H   0  0  0  0  0  0  0  0  0  0  0  0
   35.9751   62.4867   54.3005 H   0  0  0  0  0  0  0  0  0  0  0  0
  1  2  1  0
  2  3  1  0
  3  4  1  0
  4  5  2  0
  4  6  1  0
  6  7  1  0
  7  8  1  0
  8  9  1  0
  9 10  2  0
 10 11  1  0
 11 12  2  0
 12 13  1  0
 13 14  2  0
 14 15  1  0
 15 16  1  0
 16 17  2  0
 16 18  1  0
 18 19  1  0
 19 20  1  0
 20 21  1  0
 21 22  1  0
 22 23  1  0
 23 24  1  0
 24 25  1  0
 26 25  1  6
 26 27  1  0
 26 28  1  0
 28 29  1  0
 29 30  1  0
 29 31  1  0
 29 32  1  0
 32 33  1  0
 33 34  2  0
 21 35  1  0
 35 36  1  0
 15  7  2  0
 36 18  1  0
 14  9  1  0
 27 22  1  0
 33 26  1  0
  1 37  1  0
  1 38  1  0
  1 39  1  0
  2 40  1  0
  2 41  1  0
  3 42  1  0
  6 43  1  0
 10 44  1  0
 11 45  1  0
 12 46  1  0
 13 47  1  0
 19 48  1  0
 19 49  1  0
 20 50  1  0
 20 51  1  0
 21 52  1  0
 23 53  1  0
 23 54  1  0
 24 55  1  0
 24 56  1  0
 25 57  1  0
 25 58  1  0
 27 59  1  0
 27 60  1  0
 28 61  1  0
 28 62  1  0
 30 63  1  0
 30 64  1  0
 30 65  1  0
 31 66  1  0
 31 67  1  0
 31 68  1  0
 35 69  1  0
 35 70  1  0
 36 71  1  0
 36 72  1  0
M  END
>  <meeko>  (16) 
{"is_sidechain": [false], "free_energy": -7.524, "intermolecular_energy": -9.433, "internal_energy": -1.039}

$$$$
seed-1003
     RDKit          3D

 72 76  0  0  0  0  0  0  0  0999 V2000
   38.1550   61.4350   46.4280 C   0  0  0  0  0  0  0  0  0  0  0  0
   37.1040   62.4620   46.0470 C   0  0  0  0  0  0  0  0  0  0  0  0
   36.5370   63.1140   47.2100 N   0  0  0  0  0  0  0  0  0  0  0  0
   35.3830   62.6320   47.8070 C   0  0  0  0  0  0  0  0  0  0  0  0
   34.8290   61.6150   47.4160 O   0  0  0  0  0  0  0  0  0  0  0  0
   35.0050   63.4520   48.8490 N   0  0  0  0  0  0  0  0  0  0  0  0
   33.9100   63.3050   49.6880 C   0  0  0  0  0  0  0  0  0  0  0  0
   32.3250   63.3150   49.1020 S   0  0  0  0  0  0  0  0  0  0  0  0
   31.6570   62.9590   50.6410 C   0  0  0  0  0  0  0  0  0  0  0  0
   30.2960   62.7510   50.9420 C   0  0  0  0  0  0  0  0  0  0  0  0
   29.9310   62.4380   52.2530 C   0  0  0  0  0  0  0  0  0  0  0  0
   30.8960   62.3280   53.2420 C   0  0  0  0  0  0  0  0  0  0  0  0
   32.2430   62.5420   52.9390 C   0  0  0  0  0  0  0  0  0  0  0  0
   32.6500   62.8830   51.6210 C   0  0  0  0  0  0  0  0  0  0  0  0
   33.9580   63.1710   51.0660 C   0  0  0  0  0  0  0  0  0  0  0  0
   35.2230   63.2520   51.7980 C   0  0  0  0  0  0  0  0  0  0  0  0
   36.1660   62.5270   51.4830 O   0  0  0  0  0  0  0  0  0  0  0  0
   35.3410   64.2220   52.7990 N   0  0  0  0  0  0  0  0  0  0  0  0
   34.5320   65.4410   52.8390 C   0  0  0  0  0  0  0  0  0  0  0  0
   35.3340   66.6680   53.2970 C   0  0  0  0  0  0  0  0  0  0  0  0
   36.7520   66.6560   52.6870 C   0  0  0  0  0  0  0  0  0  0  0  0
   37.5770   67.8520   53.0160 N   0  0  0  0  0  0  0  0  0  0  0  0
   37.1270   68.4890   54.2670 C   0  0  0  0  0  0  0  0  0  0  0  0
   37.7530   69.8740   54.4280 C   0  0  0  0  0  0  0  0  0  0  0  0
   39.1340   70.0110   53.7900 C   0  0  0  0  0  0  0  0  0  0  0  0
   39.8970   68.6850   53.7020 C   0  0  1  0  0  0  0  0  0  0  0  0
   39.0220   67.5420   53.1280 C   0  0  0  0  0  0  0  0  0  0  0  0
   41.1990   68.8850   52.9150 C   0  0  0  0  0  0  0  0  0  0  0  0
   42.2130   67.9780   53.5950 C   0  0  0  0  0  0  0  0  0  0  0  0
   42.2760   66.5730   52.9930 C   0  0  0  0  0  0  0  0  0  0  0  0
   43.6080   68.6010   53.5980 C   0  0  0  0  0  0  0  0  0  0  0  0
   41.7570   67.8840   54.9500 O   0  0  0  0  0  0  0  0  0  0  0  0
   40.4510   68.2670   55.0510 C   0  0  0  0  0  0  0  0  0  0  0  0
   39.8310   68.2390   56.1020 O   0  0  0  0  0  0  0  0  0  0  0  0
   37.4880   65.3590   53.1260 C   0  0  0  0  0  0  0  0  0  0  0  0
   36.5500   64.2530   53.6000 C   0  0  0  0  0  0  0  0  0  0  0  0
   38.2227   61.3689   47.5239 H   0  0  0  0  0  0  0  0  0  0  0  0
   37.8742   60.4536   46.0181 H   0  0  0  0  0  0  0  0  0  0  0  0
   39.1296   61.7384   46.0181 H   0  0  0  0  0  0  0  0  0  0  0  0
   37.5684   63.2238   45.4037 H   0  0  0  0  0  0  0  0  0  0  0  0
   36.2921   61.9388   45.5207 H   0  0  0  0  0  0  0  0  0  0  0  0
   36.7420   64.0940   47.3330 H   0  0  0  0  0  0  0  0  0  0  0  0
   35.6940   64.1280   49.1590 H   0  0  0  0  0  0  0  0  0  0  0  0
   29.5318   62.8341   50.1551 H   0  0  0  0  0  0  0  0  0  0  0  0
   28.8717   62.2778   52.5023 H   0  0  0  0  0  0  0  0  0  0  0  0
   30.6000   62.0711   54.2698 H   0  0  0  0  0  0  0  0  0  0  0  0
   32.9992   62.4451   53.7320 H   0  0  0  0  0  0  0  0  0  0  0  0
   34.1369   65.6347   51.8308 H   0  0  0  0  0  0  0  0  0  0  0  0
   33.7239   65.2805   53.5678 H   0  0  0  0  0  0  0  0  0  0  0  0
   34.8111   67.5809   52.9757 H   0  0  0  0  0  0  0  0  0  0  0  0
   35.4219   66.6422   54.3932 H   0  0  0  0  0  0  0  0  0  0  0  0
   36.6200   66.6848   51.5953 H   0  0  0  0  0  0  0  0  0  0  0  0
   36.0317   68.5887   54.2470 H   0  0  0  0  0  0  0  0  0  0  0  0
   37.4395   67.8608   55.1142 H   0  0  0  0  0  0  0  0  0  0  0  0
   37.0829   70.6123   53.9635 H   0  0  0  0  0  0  0  0  0  0  0  0
   37.8839   70.0399   55.5075 H   0  0  0  0  0  0  0  0  0  0  0  0
   39.0102   70.4104   52.7726 H   0  0  0  0  0  0  0  0  0  0  0  0
   39.7231   70.6832   54.4312 H   0  0  0  0  0  0  0  0  0  0  0  0
   39.3970   67.2976   52.1232 H   0  0  0  0  0  0  0  0  0  0  0  0
   39.1020   66.7077   53.8404 H   0  0  0  0  0  0  0  0  0  0  0  0
   41.0636   68.5934   51.8630 H   0  0  0  0  0  0  0  0  0  0  0  0
   41.5222   69.9364   52.9111 H   0  0  0  0  0  0  0  0  0  0  0  0
   42.3094   65.8286   53.8021 H   0  0  0  0  0  0  0  0  0  0  0  0
   41.3847   66.3999   52.3720 H   0  0  0  0  0  0  0  0  0  0  0  0
   43.1792   66.4803   52.3720 H   0  0  0  0  0  0  0  0  0  0  0  0
   43.9409   68.7497   54.6358 H   0  0  0  0  0  0  0  0  0  0  0  0
   44.3100   67.9309   53.0802 H   0  0  0  0  0  0  0  0  0  0  0  0
   43.5775   69.5710   53.0802 H   0  0  0  0  0  0  0  0  0  0  0  0
   38.0663   64.9810   52.2700 H   0  0  0  0  0  0  0  0  0  0  0  0
   38.1284   65.6257   53.9797 H   0  0  0  0  0  0  0  0  0  0  0  0
   37.0635   63.2840   53.5148 H   0  0  0  0  0  0  0  0  0  0  0  0
   36.2738   64.4504   54.6463 H   0  0  0  0  0  0  0  0  0  0  0  0
  1  2  1  0
  2  3  1  0
  3  4  1  0
  4  5  2  0
  4  6  1  0
  6  7  1  0
  7  8  1  0
  8  9  1  0
  9 10  2  0
 10 11  1  0
 11 12  2  0
 12 13  1  0
 13 14  2  0
 14 15  1  0
 15 16  1  0
 16 17  2  0
 16 18  1  0
 18 19  1  0
 19 20  1  0
 20 21  1  0
 21 22  1  0
 22 23  1  0
 23 24  1  0
 24 25  1  0
 26 25  1  1
 26 27  1  0
 26 28  1  0
 28 29  1  0
 29 30  1  0
 29 31  1  0
 29 32  1  0
 32 33  1  0
 33 34  2  0
 21 35  1  0
 35 36  1  0
 15  7  2  0
 36 18  1  0
 14  9  1  0
 27 22  1  0
 33 26  1  0
  1 37  1  0
  1 38  1  0
  1 39  1  0
  2 40  1  0
  2 41  1  0
  3 42  1  0
  6 43  1  0
 10 44  1  0
 11 45  1  0
 12 46  1  0
 13 47  1  0
 19 48  1  0
 19 49  1  0
 20 50  1  0
 20 51  1  0
 21 52  1  0
 23 53  1  0
 23 54  1  0
 24 55  1  0
 24 56  1  0
 25 57  1  0
 25 58  1  0
 27 59  1  0
 27 60  1  0
 28 61  1  0
 28 62  1  0
 30 63  1  0
 30 64  1  0
 30 65  1  0
 31 66  1  0
 31 67  1  0
 31 68  1  0
 35 69  1  0
 35 70  1  0
 36 71  1  0
 36 72  1  0
M  END
>  <meeko>  (17) 
{"is_sidechain": [false], "free_energy": -7.444, "intermolecular_energy": -9.065, "internal_energy": -1.309}

$$$$
seed-1003
     RDKit          3D

 72 76  0  0  0  0  0  0  0  0999 V2000
   38.9680   67.1930   47.4910 C   0  0  0  0  0  0  0  0  0  0  0  0
   39.0090   68.6430   47.0470 C   0  0  0  0  0  0  0  0  0  0  0  0
   39.6440   69.4940   48.0320 N   0  0  0  0  0  0  0  0  0  0  0  0
   38.8960   70.1610   48.9890 C   0  0  0  0  0  0  0  0  0  0  0  0
   37.6850   70.0180   49.0770 O   0  0  0  0  0  0  0  0  0  0  0  0
   39.7120   70.9540   49.7680 N   0  0  0  0  0  0  0  0  0  0  0  0
   39.3400   71.7680   50.8280 C   0  0  0  0  0  0  0  0  0  0  0  0
   38.7020   73.3140   50.5870 S   0  0  0  0  0  0  0  0  0  0  0  0
   38.4040   73.5500   52.2600 C   0  0  0  0  0  0  0  0  0  0  0  0
   37.7930   74.6700   52.8580 C   0  0  0  0  0  0  0  0  0  0  0  0
   37.6000   74.6810   54.2410 C   0  0  0  0  0  0  0  0  0  0  0  0
   38.0010   73.6010   55.0130 C   0  0  0  0  0  0  0  0  0  0  0  0
   38.6130   72.4960   54.4140 C   0  0  0  0  0  0  0  0  0  0  0  0
   38.8440   72.4590   53.0130 C   0  0  0  0  0  0  0  0  0  0  0  0
   39.4680   71.4570   52.1710 C   0  0  0  0  0  0  0  0  0  0  0  0
   40.1050   70.2150   52.6100 C   0  0  0  0  0  0  0  0  0  0  0  0
   41.2710   70.2240   53.0020 O   0  0  0  0  0  0  0  0  0  0  0  0
   39.3270   69.0530   52.6390 N   0  0  0  0  0  0  0  0  0  0  0  0
   37.8680   69.0630   52.7470 C   0  0  0  0  0  0  0  0  0  0  0  0
   37.3340   67.9430   53.6520 C   0  0  0  0  0  0  0  0  0  0  0  0
   38.2370   67.7600   54.8900 C   0  0  0  0  0  0  0  0  0  0  0  0
   37.7520   66.7440   55.8660 N   0  0  0  0  0  0  0  0  0  0  0  0
   36.9420   65.7050   55.2030 C   0  0  0  0  0  0  0  0  0  0  0  0
   36.1910   64.8610   56.2320 C   0  0  0  0  0  0  0  0  0  0  0  0
   36.9120   64.7270   57.5720 C   0  0  0  0  0  0  0  0  0  0  0  0
   38.4340   64.8630   57.4600 C   0  0  1  0  0  0  0  0  0  0  0  0
   38.8530   66.0900   56.6130 C   0  0  0  0  0  0  0  0  0  0  0  0
   39.0600   64.8700   58.8610 C   0  0  0  0  0  0  0  0  0  0  0  0
   40.3750   64.1200   58.7080 C   0  0  0  0  0  0  0  0  0  0  0  0
   41.5600   65.0260   58.3700 C   0  0  0  0  0  0  0  0  0  0  0  0
   40.6960   63.2930   59.9530 C   0  0  0  0  0  0  0  0  0  0  0  0
   40.1490   63.2210   57.6160 O   0  0  0  0  0  0  0  0  0  0  0  0
   39.0660   63.6100   56.8810 C   0  0  0  0  0  0  0  0  0  0  0  0
   38.6970   63.0200   55.8790 O   0  0  0  0  0  0  0  0  0  0  0  0
   39.6800   67.4120   54.4260 C   0  0  0  0  0  0  0  0  0  0  0  0
   39.9650   67.7950   52.9770 C   0  0  0  0  0  0  0  0  0  0  0  0
   38.9667   67.1460   48.5900 H   0  0  0  0  0  0  0  0  0  0  0  0
   38.0560   66.7162   47.1025 H   0  0  0  0  0  0  0  0  0  0  0  0
   39.8516   66.6654   47.1025 H   0  0  0  0  0  0  0  0  0  0  0  0
   39.5716   68.7100   46.1042 H   0  0  0  0  0  0  0  0  0  0  0  0
   37.9727   68.9881   46.9171 H   0  0  0  0  0  0  0  0  0  0  0  0
   40.5360   69.8970   47.7850 H   0  0  0  0  0  0  0  0  0  0  0  0
   40.7090   70.7880   49.6850 H   0  0  0  0  0  0  0  0  0  0  0  0
   37.4723   75.5243   52.2437 H   0  0  0  0  0  0  0  0  0  0  0  0
   37.1274   75.5509   54.7206 H   0  0  0  0  0  0  0  0  0  0  0  0
   37.8369   73.6139   56.1006 H   0  0  0  0  0  0  0  0  0  0  0  0
   38.9201   71.6428   55.0367 H   0  0  0  0  0  0  0  0  0  0  0  0
   37.5523   70.0316   53.1619 H   0  0  0  0  0  0  0  0  0  0  0  0
   37.4587   68.8999   51.7391 H   0  0  0  0  0  0  0  0  0  0  0  0
   36.3170   68.2008   53.9826 H   0  0  0  0  0  0  0  0  0  0  0  0
   37.3248   67.0030   53.0808 H   0  0  0  0  0  0  0  0  0  0  0  0
   38.2161   68.7171   55.4318 H   0  0  0  0  0  0  0  0  0  0  0  0
   36.2150   66.1877   54.5333 H   0  0  0  0  0  0  0  0  0  0  0  0
   37.6131   65.0474   54.6310 H   0  0  0  0  0  0  0  0  0  0  0  0
   35.2107   65.3265   56.4118 H   0  0  0  0  0  0  0  0  0  0  0  0
   36.1085   63.8474   55.8126 H   0  0  0  0  0  0  0  0  0  0  0  0
   36.5406   65.5114   58.2478 H   0  0  0  0  0  0  0  0  0  0  0  0
   36.7033   63.7166   57.9535 H   0  0  0  0  0  0  0  0  0  0  0  0
   39.2960   66.8358   57.2894 H   0  0  0  0  0  0  0  0  0  0  0  0
   39.5560   65.7136   55.8553 H   0  0  0  0  0  0  0  0  0  0  0  0
   39.2400   65.9012   59.1990 H   0  0  0  0  0  0  0  0  0  0  0  0
   38.4028   64.4036   59.6097 H   0  0  0  0  0  0  0  0  0  0  0  0
   42.0262   65.3824   59.3004 H   0  0  0  0  0  0  0  0  0  0  0  0
   42.2986   64.4601   57.7832 H   0  0  0  0  0  0  0  0  0  0  0  0
   41.2075   65.8871   57.7832 H   0  0  0  0  0  0  0  0  0  0  0  0
   40.4674   63.8820   60.8534 H   0  0  0  0  0  0  0  0  0  0  0  0
   40.0885   62.3760   59.9507 H   0  0  0  0  0  0  0  0  0  0  0  0
   41.7631   63.0259   59.9507 H   0  0  0  0  0  0  0  0  0  0  0  0
   40.3915   67.9458   55.0731 H   0  0  0  0  0  0  0  0  0  0  0  0
   39.7872   66.3196   54.4978 H   0  0  0  0  0  0  0  0  0  0  0  0
   41.0517   67.8934   52.8376 H   0  0  0  0  0  0  0  0  0  0  0  0
   39.5629   67.0095   52.3203 H   0  0  0  0  0  0  0  0  0  0  0  0
  1  2  1  0
  2  3  1  0
  3  4  1  0
  4  5  2  0
  4  6  1  0
  6  7  1  0
  7  8  1  0
  8  9  1  0
  9 10  2  0
 10 11  1  0
 11 12  2  0
 12 13  1  0
 13 14  2  0
 14 15  1  0
 15 16  1  0
 16 17  2  0
 16 18  1  0
 18 19  1  0
 19 20  1  0
 20 21  1  0
 21 22  1  0
 22 23  1  0
 23 24  1  0
 24 25  1  0
 26 25  1  1
 26 27  1  0
 26 28  1  0
 28 29  1  0
 29 30  1  0
 29 31  1  0
 29 32  1  0
 32 33  1  0
 33 34  2  0
 21 35  1  0
 35 36  1  0
 15  7  2  0
 36 18  1  0
 14  9  1  0
 27 22  1  0
 33 26  1  0
  1 37  1  0
  1 38  1  0
  1 39  1  0
  2 40  1  0
  2 41  1  0
  3 42  1  0
  6 43  1  0
 10 44  1  0
 11 45  1  0
 12 46  1  0
 13 47  1  0
 19 48  1  0
 19 49  1  0
 20 50  1  0
 20 51  1  0
 21 52  1  0
 23 53  1  0
 23 54  1  0
 24 55  1  0
 24 56  1  0
 25 57  1  0
 25 58  1  0
 27 59  1  0
 27 60  1  0
 28 61  1  0
 28 62  1  0
 30 63  1  0
 30 64  1  0
 30 65  1  0
 31 66  1  0
 31 67  1  0
 31 68  1  0
 35 69  1  0
 35 70  1  0
 36 71  1  0
 36 72  1  0
M  END
>  <meeko>  (18) 
{"is_sidechain": [false], "free_energy": -7.361, "intermolecular_energy": -8.832, "internal_energy": -1.439}

$$$$
seed-1003
     RDKit          3D

 72 76  0  0  0  0  0  0  0  0999 V2000
   43.1440   71.5750   56.8900 C   0  0  0  0  0  0  0  0  0  0  0  0
   42.0340   70.5930   57.2170 C   0  0  0  0  0  0  0  0  0  0  0  0
   42.2410   69.9490   58.4980 N   0  0  0  0  0  0  0  0  0  0  0  0
   42.6150   68.6170   58.5760 C   0  0  0  0  0  0  0  0  0  0  0  0
   42.8390   67.9490   57.5760 O   0  0  0  0  0  0  0  0  0  0  0  0
   42.6870   68.2160   59.8930 N   0  0  0  0  0  0  0  0  0  0  0  0
   43.0290   66.9630   60.3790 C   0  0  0  0  0  0  0  0  0  0  0  0
   44.6300   66.5430   60.7230 S   0  0  0  0  0  0  0  0  0  0  0  0
   44.1880   65.0120   61.3580 C   0  0  0  0  0  0  0  0  0  0  0  0
   45.0510   64.0530   61.9250 C   0  0  0  0  0  0  0  0  0  0  0  0
   44.5120   62.8660   62.4240 C   0  0  0  0  0  0  0  0  0  0  0  0
   43.1460   62.6370   62.3650 C   0  0  0  0  0  0  0  0  0  0  0  0
   42.2960   63.5890   61.7940 C   0  0  0  0  0  0  0  0  0  0  0  0
   42.8110   64.7990   61.2580 C   0  0  0  0  0  0  0  0  0  0  0  0
   42.1530   65.9140   60.6060 C   0  0  0  0  0  0  0  0  0  0  0  0
   40.7340   66.0190   60.2660 C   0  0  0  0  0  0  0  0  0  0  0  0
   39.9990   66.7720   60.9050 O   0  0  0  0  0  0  0  0  0  0  0  0
   40.2690   65.3020   59.1590 N   0  0  0  0  0  0  0  0  0  0  0  0
   41.1300   64.8740   58.0570 C   0  0  0  0  0  0  0  0  0  0  0  0
   40.4470   65.0010   56.6880 C   0  0  0  0  0  0  0  0  0  0  0  0
   39.6130   66.2980   56.6080 C   0  0  0  0  0  0  0  0  0  0  0  0
   38.9750   66.5430   55.2850 N   0  0  0  0  0  0  0  0  0  0  0  0
   37.5060   66.4440   55.3690 C   0  0  0  0  0  0  0  0  0  0  0  0
   36.8850   66.3760   53.9740 C   0  0  0  0  0  0  0  0  0  0  0  0
   37.6810   67.1170   52.9010 C   0  0  0  0  0  0  0  0  0  0  0  0
   38.5190   68.2740   53.4570 C   0  0  1  0  0  0  0  0  0  0  0  0
   39.3350   67.8590   54.7070 C   0  0  0  0  0  0  0  0  0  0  0  0
   39.3990   68.8600   52.3440 C   0  0  0  0  0  0  0  0  0  0  0  0
   39.4380   70.3550   52.6210 C   0  0  0  0  0  0  0  0  0  0  0  0
   40.6030   70.7790   53.5170 C   0  0  0  0  0  0  0  0  0  0  0  0
   39.4640   71.1640   51.3240 C   0  0  0  0  0  0  0  0  0  0  0  0
   38.2060   70.6260   53.2970 O   0  0  0  0  0  0  0  0  0  0  0  0
   37.6580   69.4770   53.7910 C   0  0  0  0  0  0  0  0  0  0  0  0
   36.6230   69.4600   54.4370 O   0  0  0  0  0  0  0  0  0  0  0  0
   38.5360   66.2840   57.7300 C   0  0  0  0  0  0  0  0  0  0  0  0
   38.8480   65.3150   58.8660 C   0  0  0  0  0  0  0  0  0  0  0  0
   43.5795   71.9603   57.8237 H   0  0  0  0  0  0  0  0  0  0  0  0
   43.9236   71.0655   56.3046 H   0  0  0  0  0  0  0  0  0  0  0  0
   42.7334   72.4109   56.3046 H   0  0  0  0  0  0  0  0  0  0  0  0
   41.0766   71.1342   57.2418 H   0  0  0  0  0  0  0  0  0  0  0  0
   42.0296   69.8135   56.4409 H   0  0  0  0  0  0  0  0  0  0  0  0
   41.7490   70.3340   59.2900 H   0  0  0  0  0  0  0  0  0  0  0  0
   42.6710   68.9550   60.5880 H   0  0  0  0  0  0  0  0  0  0  0  0
   46.1344   64.2373   61.9737 H   0  0  0  0  0  0  0  0  0  0  0  0
   45.1749   62.1080   62.8666 H   0  0  0  0  0  0  0  0  0  0  0  0
   42.7292   61.7026   62.7690 H   0  0  0  0  0  0  0  0  0  0  0  0
   41.2133   63.3981   61.7595 H   0  0  0  0  0  0  0  0  0  0  0  0
   42.0370   65.4963   58.0569 H   0  0  0  0  0  0  0  0  0  0  0  0
   41.3661   63.8111   58.2133 H   0  0  0  0  0  0  0  0  0  0  0  0
   41.2161   65.0180   55.9017 H   0  0  0  0  0  0  0  0  0  0  0  0
   39.7751   64.1413   56.5487 H   0  0  0  0  0  0  0  0  0  0  0  0
   40.3189   67.1299   56.7481 H   0  0  0  0  0  0  0  0  0  0  0  0
   37.2373   65.5354   55.9279 H   0  0  0  0  0  0  0  0  0  0  0  0
   37.1216   67.3376   55.8825 H   0  0  0  0  0  0  0  0  0  0  0  0
   36.8100   65.3186   53.6802 H   0  0  0  0  0  0  0  0  0  0  0  0
   35.9038   66.8691   54.0388 H   0  0  0  0  0  0  0  0  0  0  0  0
   38.3568   66.4007   52.4108 H   0  0  0  0  0  0  0  0  0  0  0  0
   36.9544   67.5501   52.1978 H   0  0  0  0  0  0  0  0  0  0  0  0
   40.3978   67.8280   54.4251 H   0  0  0  0  0  0  0  0  0  0  0  0
   39.1086   68.6059   55.4821 H   0  0  0  0  0  0  0  0  0  0  0  0
   40.4116   68.4323   52.3858 H   0  0  0  0  0  0  0  0  0  0  0  0
   39.0038   68.6350   51.3424 H   0  0  0  0  0  0  0  0  0  0  0  0
   40.3114   70.6729   54.5723 H   0  0  0  0  0  0  0  0  0  0  0  0
   41.4749   70.1405   53.3115 H   0  0  0  0  0  0  0  0  0  0  0  0
   40.8605   71.8285   53.3115 H   0  0  0  0  0  0  0  0  0  0  0  0
   39.4985   72.2374   51.5620 H   0  0  0  0  0  0  0  0  0  0  0  0
   40.3538   70.8895   50.7384 H   0  0  0  0  0  0  0  0  0  0  0  0
   38.5584   70.9472   50.7384 H   0  0  0  0  0  0  0  0  0  0  0  0
   38.4582   67.2978   58.1496 H   0  0  0  0  0  0  0  0  0  0  0  0
   37.5955   65.9477   57.2692 H   0  0  0  0  0  0  0  0  0  0  0  0
   38.2974   65.6258   59.7661 H   0  0  0  0  0  0  0  0  0  0  0  0
   38.5428   64.3036   58.5594 H   0  0  0  0  0  0  0  0  0  0  0  0
  1  2  1  0
  2  3  1  0
  3  4  1  0
  4  5  2  0
  4  6  1  0
  6  7  1  0
  7  8  1  0
  8  9  1  0
  9 10  2  0
 10 11  1  0
 11 12  2  0
 12 13  1  0
 13 14  2  0
 14 15  1  0
 15 16  1  0
 16 17  2  0
 16 18  1  0
 18 19  1  0
 19 20  1  0
 20 21  1  0
 21 22  1  0
 22 23  1  0
 23 24  1  0
 24 25  1  0
 26 25  1  6
 26 27  1  0
 26 28  1  0
 28 29  1  0
 29 30  1  0
 29 31  1  0
 29 32  1  0
 32 33  1  0
 33 34  2  0
 21 35  1  0
 35 36  1  0
 15  7  2  0
 36 18  1  0
 14  9  1  0
 27 22  1  0
 33 26  1  0
  1 37  1  0
  1 38  1  0
  1 39  1  0
  2 40  1  0
  2 41  1  0
  3 42  1  0
  6 43  1  0
 10 44  1  0
 11 45  1  0
 12 46  1  0
 13 47  1  0
 19 48  1  0
 19 49  1  0
 20 50  1  0
 20 51  1  0
 21 52  1  0
 23 53  1  0
 23 54  1  0
 24 55  1  0
 24 56  1  0
 25 57  1  0
 25 58  1  0
 27 59  1  0
 27 60  1  0
 28 61  1  0
 28 62  1  0
 30 63  1  0
 30 64  1  0
 30 65  1  0
 31 66  1  0
 31 67  1  0
 31 68  1  0
 35 69  1  0
 35 70  1  0
 36 71  1  0
 36 72  1  0
M  END
>  <meeko>  (19) 
{"is_sidechain": [false], "free_energy": -7.241, "intermolecular_energy": -8.237, "internal_energy": -1.885}

$$$$
seed-1003
     RDKit          3D

 72 76  0  0  0  0  0  0  0  0999 V2000
   38.5540   74.2550   55.2130 C   0  0  0  0  0  0  0  0  0  0  0  0
   37.4570   73.3250   54.7300 C   0  0  0  0  0  0  0  0  0  0  0  0
   37.9570   71.9940   54.4550 N   0  0  0  0  0  0  0  0  0  0  0  0
   38.1820   71.5690   53.1550 C   0  0  0  0  0  0  0  0  0  0  0  0
   38.0230   72.3110   52.1970 O   0  0  0  0  0  0  0  0  0  0  0  0
   38.5920   70.2530   53.1460 N   0  0  0  0  0  0  0  0  0  0  0  0
   38.9170   69.4750   52.0440 C   0  0  0  0  0  0  0  0  0  0  0  0
   37.7380   68.6790   51.1320 S   0  0  0  0  0  0  0  0  0  0  0  0
   38.8780   68.1200   49.9780 C   0  0  0  0  0  0  0  0  0  0  0  0
   38.6040   67.3760   48.8130 C   0  0  0  0  0  0  0  0  0  0  0  0
   39.6570   67.0310   47.9640 C   0  0  0  0  0  0  0  0  0  0  0  0
   40.9540   67.4190   48.2630 C   0  0  0  0  0  0  0  0  0  0  0  0
   41.2210   68.1510   49.4240 C   0  0  0  0  0  0  0  0  0  0  0  0
   40.1770   68.5020   50.3210 C   0  0  0  0  0  0  0  0  0  0  0  0
   40.1980   69.2240   51.5790 C   0  0  0  0  0  0  0  0  0  0  0  0
   41.3780   69.7200   52.2870 C   0  0  0  0  0  0  0  0  0  0  0  0
   41.6540   70.9190   52.2650 O   0  0  0  0  0  0  0  0  0  0  0  0
   42.1230   68.8070   53.0400 N   0  0  0  0  0  0  0  0  0  0  0  0
   41.5720   67.5600   53.5700 C   0  0  0  0  0  0  0  0  0  0  0  0
   42.0890   67.2350   54.9790 C   0  0  0  0  0  0  0  0  0  0  0  0
   42.1760   68.5140   55.8400 C   0  0  0  0  0  0  0  0  0  0  0  0
   42.5960   68.2830   57.2500 N   0  0  0  0  0  0  0  0  0  0  0  0
   42.0770   69.3330   58.1460 C   0  0  0  0  0  0  0  0  0  0  0  0
   42.7650   69.2730   59.5100 C   0  0  0  0  0  0  0  0  0  0  0  0
   43.2090   67.8710   59.9220 C   0  0  0  0  0  0  0  0  0  0  0  0
   42.3680   66.7560   59.2910 C   0  0  1  0  0  0  0  0  0  0  0  0
   42.1750   66.9590   57.7670 C   0  0  0  0  0  0  0  0  0  0  0  0
   42.9750   65.3890   59.6340 C   0  0  0  0  0  0  0  0  0  0  0  0
   41.7810   64.4650   59.8200 C   0  0  0  0  0  0  0  0  0  0  0  0
   41.3540   63.7520   58.5350 C   0  0  0  0  0  0  0  0  0  0  0  0
   42.0360   63.4360   60.9200 C   0  0  0  0  0  0  0  0  0  0  0  0
   40.7220   65.3290   60.2480 O   0  0  0  0  0  0  0  0  0  0  0  0
   41.0110   66.6320   59.9590 C   0  0  0  0  0  0  0  0  0  0  0  0
   40.2440   67.5510   60.1980 O   0  0  0  0  0  0  0  0  0  0  0  0
   43.1330   69.5300   55.1540 C   0  0  0  0  0  0  0  0  0  0  0  0
   43.3500   69.2590   53.6680 C   0  0  0  0  0  0  0  0  0  0  0  0
   38.5673   74.2663   56.3129 H   0  0  0  0  0  0  0  0  0  0  0  0
   39.5259   73.9014   54.8382 H   0  0  0  0  0  0  0  0  0  0  0  0
   38.3643   75.2716   54.8382 H   0  0  0  0  0  0  0  0  0  0  0  0
   36.6799   73.2593   55.5057 H   0  0  0  0  0  0  0  0  0  0  0  0
   37.0507   73.7357   53.7939 H   0  0  0  0  0  0  0  0  0  0  0  0
   37.7680   71.2810   55.1430 H   0  0  0  0  0  0  0  0  0  0  0  0
   38.8670   69.8630   54.0400 H   0  0  0  0  0  0  0  0  0  0  0  0
   37.5740   67.0712   48.5758 H   0  0  0  0  0  0  0  0  0  0  0  0
   39.4566   66.4482   47.0529 H   0  0  0  0  0  0  0  0  0  0  0  0
   41.7765   67.1498   47.5840 H   0  0  0  0  0  0  0  0  0  0  0  0
   42.2534   68.4592   49.6457 H   0  0  0  0  0  0  0  0  0  0  0  0
   40.4762   67.6480   53.6089 H   0  0  0  0  0  0  0  0  0  0  0  0
   41.8914   66.7457   52.9030 H   0  0  0  0  0  0  0  0  0  0  0  0
   41.4023   66.5227   55.4597 H   0  0  0  0  0  0  0  0  0  0  0  0
   43.0951   66.7986   54.8933 H   0  0  0  0  0  0  0  0  0  0  0  0
   41.1537   68.9152   55.9030 H   0  0  0  0  0  0  0  0  0  0  0  0
   42.2617   70.3178   57.6921 H   0  0  0  0  0  0  0  0  0  0  0  0
   40.9981   69.1728   58.2884 H   0  0  0  0  0  0  0  0  0  0  0  0
   43.6530   69.9214   59.4780 H   0  0  0  0  0  0  0  0  0  0  0  0
   42.0251   69.6034   60.2539 H   0  0  0  0  0  0  0  0  0  0  0  0
   44.2566   67.7331   59.6162 H   0  0  0  0  0  0  0  0  0  0  0  0
   43.0808   67.7971   61.0120 H   0  0  0  0  0  0  0  0  0  0  0  0
   42.7592   66.1876   57.2439 H   0  0  0  0  0  0  0  0  0  0  0  0
   41.0927   66.8889   57.5836 H   0  0  0  0  0  0  0  0  0  0  0  0
   43.6154   65.0332   58.8134 H   0  0  0  0  0  0  0  0  0  0  0  0
   43.6091   65.4314   60.5319 H   0  0  0  0  0  0  0  0  0  0  0  0
   40.8043   62.8341   58.7903 H   0  0  0  0  0  0  0  0  0  0  0  0
   40.7049   64.4162   57.9455 H   0  0  0  0  0  0  0  0  0  0  0  0
   42.2459   63.4933   57.9455 H   0  0  0  0  0  0  0  0  0  0  0  0
   41.9176   63.9139   61.9037 H   0  0  0  0  0  0  0  0  0  0  0  0
   41.3152   62.6106   60.8242 H   0  0  0  0  0  0  0  0  0  0  0  0
   43.0588   63.0427   60.8242 H   0  0  0  0  0  0  0  0  0  0  0  0
   42.7070   70.5381   55.2649 H   0  0  0  0  0  0  0  0  0  0  0  0
   44.1122   69.4326   55.6455 H   0  0  0  0  0  0  0  0  0  0  0  0
   43.6854   70.1851   53.1782 H   0  0  0  0  0  0  0  0  0  0  0  0
   44.1103   68.4712   53.5616 H   0  0  0  0  0  0  0  0  0  0  0  0
  1  2  1  0
  2  3  1  0
  3  4  1  0
  4  5  2  0
  4  6  1  0
  6  7  1  0
  7  8  1  0
  8  9  1  0
  9 10  2  0
 10 11  1  0
 11 12  2  0
 12 13  1  0
 13 14  2  0
 14 15  1  0
 15 16  1  0
 16 17  2  0
 16 18  1  0
 18 19  1  0
 19 20  1  0
 20 21  1  0
 21 22  1  0
 22 23  1  0
 23 24  1  0
 24 25  1  0
 26 25  1  1
 26 27  1  0
 26 28  1  0
 28 29  1  0
 29 30  1  0
 29 31  1  0
 29 32  1  0
 32 33  1  0
 33 34  2  0
 21 35  1  0
 35 36  1  0
 15  7  2  0
 36 18  1  0
 14  9  1  0
 27 22  1  0
 33 26  1  0
  1 37  1  0
  1 38  1  0
  1 39  1  0
  2 40  1  0
  2 41  1  0
  3 42  1  0
  6 43  1  0
 10 44  1  0
 11 45  1  0
 12 46  1  0
 13 47  1  0
 19 48  1  0
 19 49  1  0
 20 50  1  0
 20 51  1  0
 21 52  1  0
 23 53  1  0
 23 54  1  0
 24 55  1  0
 24 56  1  0
 25 57  1  0
 25 58  1  0
 27 59  1  0
 27 60  1  0
 28 61  1  0
 28 62  1  0
 30 63  1  0
 30 64  1  0
 30 65  1  0
 31 66  1  0
 31 67  1  0
 31 68  1  0
 35 69  1  0
 35 70  1  0
 36 71  1  0
 36 72  1  0
M  END
>  <meeko>  (20) 
{"is_sidechain": [false], "free_energy": -7.041, "intermolecular_energy": -8.379, "internal_energy": -1.498}

$$$$
