seed-1002
     RDKit          3D

 72 76  0  0  0  0  0  0  0  0999 V2000
   41.8300   61.7580   58.4720 C   0  0  0  0  0  0  0  0  0  0  0  0
   40.3270   61.8150   58.2680 C   0  0  0  0  0  0  0  0  0  0  0  0
   39.8560   63.1720   58.0820 N   0  0  0  0  0  0  0  0  0  0  0  0
   39.6700   63.6960   56.8130 C   0  0  0  0  0  0  0  0  0  0  0  0
   39.8410   63.0250   55.8050 O   0  0  0  0  0  0  0  0  0  0  0  0
   39.2830   65.0170   56.8920 N   0  0  0  0  0  0  0  0  0  0  0  0
   38.9980   65.8800   55.8440 C   0  0  0  0  0  0  0  0  0  0  0  0
   40.0390   67.1400   55.4160 S   0  0  0  0  0  0  0  0  0  0  0  0
   39.0910   67.5820   54.0560 C   0  0  0  0  0  0  0  0  0  0  0  0
   39.3810   68.5930   53.1180 C   0  0  0  0  0  0  0  0  0  0  0  0
   38.5080   68.7970   52.0480 C   0  0  0  0  0  0  0  0  0  0  0  0
   37.3740   68.0120   51.9090 C   0  0  0  0  0  0  0  0  0  0  0  0
   37.0880   67.0150   52.8470 C   0  0  0  0  0  0  0  0  0  0  0  0
   37.9420   66.7930   53.9590 C   0  0  0  0  0  0  0  0  0  0  0  0
   37.8560   65.8550   55.0620 C   0  0  0  0  0  0  0  0  0  0  0  0
   36.7650   64.9180   55.3330 C   0  0  0  0  0  0  0  0  0  0  0  0
   35.9070   65.1940   56.1710 O   0  0  0  0  0  0  0  0  0  0  0  0
   36.6940   63.7530   54.5620 N   0  0  0  0  0  0  0  0  0  0  0  0
   37.2880   63.6310   53.2300 C   0  0  0  0  0  0  0  0  0  0  0  0
   36.4060   62.8310   52.2600 C   0  0  0  0  0  0  0  0  0  0  0  0
   34.9150   63.1850   52.4540 C   0  0  0  0  0  0  0  0  0  0  0  0
   33.9910   62.5110   51.5000 N   0  0  0  0  0  0  0  0  0  0  0  0
   32.7750   63.3130   51.2700 C   0  0  0  0  0  0  0  0  0  0  0  0
   31.7040   62.4870   50.5580 C   0  0  0  0  0  0  0  0  0  0  0  0
   32.2650   61.4100   49.6310 C   0  0  0  0  0  0  0  0  0  0  0  0
   33.6560   61.7420   49.0820 C   0  0  1  0  0  0  0  0  0  0  0  0
   34.6260   62.2180   50.1930 C   0  0  0  0  0  0  0  0  0  0  0  0
   34.2030   60.5460   48.2910 C   0  0  0  0  0  0  0  0  0  0  0  0
   34.9760   61.1610   47.1350 C   0  0  0  0  0  0  0  0  0  0  0  0
   36.4550   61.4000   47.4480 C   0  0  0  0  0  0  0  0  0  0  0  0
   34.8470   60.3200   45.8650 C   0  0  0  0  0  0  0  0  0  0  0  0
   34.3380   62.4220   46.9070 O   0  0  0  0  0  0  0  0  0  0  0  0
   33.5890   62.7910   47.9870 C   0  0  0  0  0  0  0  0  0  0  0  0
   32.9780   63.8460   48.0420 O   0  0  0  0  0  0  0  0  0  0  0  0
   34.4990   62.8680   53.9180 C   0  0  0  0  0  0  0  0  0  0  0  0
   35.6790   62.7670   54.8810 C   0  0  0  0  0  0  0  0  0  0  0  0
   42.0538   61.7495   59.5490 H   0  0  0  0  0  0  0  0  0  0  0  0
   42.2287   60.8441   58.0074 H   0  0  0  0  0  0  0  0  0  0  0  0
   42.2968   62.6391   58.0074 H   0  0  0  0  0  0  0  0  0  0  0  0
   40.0667   61.2235   57.3778 H   0  0  0  0  0  0  0  0  0  0  0  0
   39.8459   61.4089   59.1700 H   0  0  0  0  0  0  0  0  0  0  0  0
   40.0400   63.8280   58.8260 H   0  0  0  0  0  0  0  0  0  0  0  0
   38.9920   65.3440   57.8070 H   0  0  0  0  0  0  0  0  0  0  0  0
   40.2830   69.2130   53.2275 H   0  0  0  0  0  0  0  0  0  0  0  0
   38.7212   69.5852   51.3109 H   0  0  0  0  0  0  0  0  0  0  0  0
   36.6965   68.1739   51.0577 H   0  0  0  0  0  0  0  0  0  0  0  0
   36.1887   66.3941   52.7214 H   0  0  0  0  0  0  0  0  0  0  0  0
   37.4392   64.6397   52.8181 H   0  0  0  0  0  0  0  0  0  0  0  0
   38.2394   63.0896   53.3382 H   0  0  0  0  0  0  0  0  0  0  0  0
   36.7009   63.0665   51.2268 H   0  0  0  0  0  0  0  0  0  0  0  0
   36.5426   61.7585   52.4626 H   0  0  0  0  0  0  0  0  0  0  0  0
   34.8212   64.2601   52.2409 H   0  0  0  0  0  0  0  0  0  0  0  0
   32.3811   63.6558   52.2382 H   0  0  0  0  0  0  0  0  0  0  0  0
   33.0357   64.1728   50.6353 H   0  0  0  0  0  0  0  0  0  0  0  0
   31.0811   61.9969   51.3207 H   0  0  0  0  0  0  0  0  0  0  0  0
   31.1315   63.1833   49.9276 H   0  0  0  0  0  0  0  0  0  0  0  0
   32.3281   60.4659   50.1919 H   0  0  0  0  0  0  0  0  0  0  0  0
   31.5852   61.3380   48.7692 H   0  0  0  0  0  0  0  0  0  0  0  0
   35.3783   61.4307   50.3487 H   0  0  0  0  0  0  0  0  0  0  0  0
   35.0526   63.1685   49.8401 H   0  0  0  0  0  0  0  0  0  0  0  0
   34.8683   59.9373   48.9209 H   0  0  0  0  0  0  0  0  0  0  0  0
   33.4010   59.8780   47.9436 H   0  0  0  0  0  0  0  0  0  0  0  0
   36.5999   61.4234   48.5382 H   0  0  0  0  0  0  0  0  0  0  0  0
   37.0573   60.5875   47.0154 H   0  0  0  0  0  0  0  0  0  0  0  0
   36.7707   62.3608   47.0154 H   0  0  0  0  0  0  0  0  0  0  0  0
   34.6854   59.2666   46.1376 H   0  0  0  0  0  0  0  0  0  0  0  0
   33.9936   60.6803   45.2718 H   0  0  0  0  0  0  0  0  0  0  0  0
   35.7691   60.4079   45.2718 H   0  0  0  0  0  0  0  0  0  0  0  0
   33.8303   63.6672   54.2702 H   0  0  0  0  0  0  0  0  0  0  0  0
   34.0066   61.8844   53.9074 H   0  0  0  0  0  0  0  0  0  0  0  0
   35.3217   62.9372   55.9073 H   0  0  0  0  0  0  0  0  0  0  0  0
   36.1222   61.7644   54.7894 H   0  0  0  0  0  0  0  0  0  0  0  0
  1  2  1  0
  2  3  1  0
  3  4  1  0
  4  5  2  0
  4  6  1  0
  6  7  1  0
  7  8  1  0
  8  9  1  0
  9 10  2  0
 10 11  1  0
 11 12  2  0
 12 13  1  0
 13 14  2  0
 14 15  1  0
 15 16  1  0
 16 17  2  0
 16 18  1  0
 18 19  1  0
 19 20  1  0
 20 21  1  0
 21 22  1  0
 22 23  1  0
 23 24  1  0
 24 25  1  0
 26 25  1  1
 26 27  1  0
 26 28  1  0
 28 29  1  0
 29 30  1  0
 29 31  1  0
 29 32  1  0
 32 33  1  0
 33 34  2  0
 21 35  1  0
 35 36  1  0
 15  7  2  0
 36 18  1  0
 14  9  1  0
 27 22  1  0
 33 26  1  0
  1 37  1  0
  1 38  1  0
  1 39  1  0
  2 40  1  0
  2 41  1  0
  3 42  1  0
  6 43  1  0
 10 44  1  0
 11 45  1  0
 12 46  1  0
 13 47  1  0
 19 48  1  0
 19 49  1  0
 20 50  1  0
 20 51  1  0
 21 52  1  0
 23 53  1  0
 23 54  1  0
 24 55  1  0
 24 56  1  0
 25 57  1  0
 25 58  1  0
 27 59  1  0
 27 60  1  0
 28 61  1  0
 28 62  1  0
 30 63  1  0
 30 64  1  0
 30 65  1  0
 31 66  1  0
 31 67  1  0
 31 68  1  0
 35 69  1  0
 35 70  1  0
 36 71  1  0
 36 72  1  0
M  END
>  <meeko>  (1) 
{"is_sidechain": [false], "free_energy": -10.35, "intermolecular_energy": -12.77, "internal_energy": -1.156}

$$$$
seed-1002
     RDKit          3D

 72 76  0  0  0  0  0  0  0  0999 V2000
   40.6990   61.4190   60.1110 C   0  0  0  0  0  0  0  0  0  0  0  0
   39.3760   61.4630   59.3680 C   0  0  0  0  0  0  0  0  0  0  0  0
   39.4980   62.1140   58.0810 N   0  0  0  0  0  0  0  0  0  0  0  0
   39.1400   63.4420   57.9140 C   0  0  0  0  0  0  0  0  0  0  0  0
   38.7600   64.1300   58.8510 O   0  0  0  0  0  0  0  0  0  0  0  0
   39.2830   63.8150   56.5950 N   0  0  0  0  0  0  0  0  0  0  0  0
   39.0290   65.0580   56.0340 C   0  0  0  0  0  0  0  0  0  0  0  0
   40.1920   66.2850   56.0130 S   0  0  0  0  0  0  0  0  0  0  0  0
   39.1980   67.3360   55.0910 C   0  0  0  0  0  0  0  0  0  0  0  0
   39.5400   68.6160   54.6110 C   0  0  0  0  0  0  0  0  0  0  0  0
   38.6130   69.3240   53.8450 C   0  0  0  0  0  0  0  0  0  0  0  0
   37.3740   68.7730   53.5570 C   0  0  0  0  0  0  0  0  0  0  0  0
   37.0370   67.5050   54.0420 C   0  0  0  0  0  0  0  0  0  0  0  0
   37.9470   66.7640   54.8420 C   0  0  0  0  0  0  0  0  0  0  0  0
   37.8300   65.4630   55.4720 C   0  0  0  0  0  0  0  0  0  0  0  0
   36.6490   64.6000   55.4880 C   0  0  0  0  0  0  0  0  0  0  0  0
   35.8370   64.6790   56.4090 O   0  0  0  0  0  0  0  0  0  0  0  0
   36.4430   63.7500   54.3960 N   0  0  0  0  0  0  0  0  0  0  0  0
   37.0020   63.9960   53.0670 C   0  0  0  0  0  0  0  0  0  0  0  0
   36.0270   63.6320   51.9380 C   0  0  0  0  0  0  0  0  0  0  0  0
   34.5860   64.0500   52.3010 C   0  0  0  0  0  0  0  0  0  0  0  0
   33.5810   63.8050   51.2290 N   0  0  0  0  0  0  0  0  0  0  0  0
   34.2270   63.3780   49.9740 C   0  0  0  0  0  0  0  0  0  0  0  0
   33.2420   63.4390   48.8060 C   0  0  0  0  0  0  0  0  0  0  0  0
   31.7890   63.1900   49.2060 C   0  0  0  0  0  0  0  0  0  0  0  0
   31.6430   62.3220   50.4600 C   0  0  1  0  0  0  0  0  0  0  0  0
   32.5640   62.7970   51.6120 C   0  0  0  0  0  0  0  0  0  0  0  0
   30.1670   62.2520   50.8740 C   0  0  0  0  0  0  0  0  0  0  0  0
   29.9740   60.8380   51.4020 C   0  0  0  0  0  0  0  0  0  0  0  0
   30.2160   60.7090   52.9070 C   0  0  0  0  0  0  0  0  0  0  0  0
   28.5880   60.2950   51.0540 C   0  0  0  0  0  0  0  0  0  0  0  0
   30.9520   60.0590   50.7030 O   0  0  0  0  0  0  0  0  0  0  0  0
   31.9170   60.8600   50.1640 C   0  0  0  0  0  0  0  0  0  0  0  0
   32.8770   60.4210   49.5510 O   0  0  0  0  0  0  0  0  0  0  0  0
   34.1580   63.3310   53.6120 C   0  0  0  0  0  0  0  0  0  0  0  0
   35.3330   62.8170   54.4390 C   0  0  0  0  0  0  0  0  0  0  0  0
   40.5112   61.4252   61.1948 H   0  0  0  0  0  0  0  0  0  0  0  0
   41.2424   60.5023   59.8383 H   0  0  0  0  0  0  0  0  0  0  0  0
   41.3021   62.2976   59.8383 H   0  0  0  0  0  0  0  0  0  0  0  0
   39.0214   60.4333   59.2129 H   0  0  0  0  0  0  0  0  0  0  0  0
   38.6645   62.0418   59.9753 H   0  0  0  0  0  0  0  0  0  0  0  0
   39.4640   61.5240   57.2630 H   0  0  0  0  0  0  0  0  0  0  0  0
   39.8050   63.1770   56.0030 H   0  0  0  0  0  0  0  0  0  0  0  0
   40.5246   69.0513   54.8371 H   0  0  0  0  0  0  0  0  0  0  0  0
   38.8670   70.3255   53.4674 H   0  0  0  0  0  0  0  0  0  0  0  0
   36.6532   69.3350   52.9449 H   0  0  0  0  0  0  0  0  0  0  0  0
   36.0534   67.0758   53.8004 H   0  0  0  0  0  0  0  0  0  0  0  0
   37.2547   65.0633   52.9834 H   0  0  0  0  0  0  0  0  0  0  0  0
   37.8912   63.3579   52.9570 H   0  0  0  0  0  0  0  0  0  0  0  0
   36.3318   64.1509   51.0172 H   0  0  0  0  0  0  0  0  0  0  0  0
   36.0509   62.5423   51.7897 H   0  0  0  0  0  0  0  0  0  0  0  0
   34.6059   65.1414   52.4370 H   0  0  0  0  0  0  0  0  0  0  0  0
   35.0780   64.0422   49.7627 H   0  0  0  0  0  0  0  0  0  0  0  0
   34.5704   62.3395   50.0907 H   0  0  0  0  0  0  0  0  0  0  0  0
   33.3088   64.4372   48.3487 H   0  0  0  0  0  0  0  0  0  0  0  0
   33.5231   62.6350   48.1099 H   0  0  0  0  0  0  0  0  0  0  0  0
   31.3085   64.1610   49.3963 H   0  0  0  0  0  0  0  0  0  0  0  0
   31.3129   62.6456   48.3772 H   0  0  0  0  0  0  0  0  0  0  0  0
   31.9297   63.2342   52.3972 H   0  0  0  0  0  0  0  0  0  0  0  0
   33.1224   61.9092   51.9437 H   0  0  0  0  0  0  0  0  0  0  0  0
   29.9500   62.9911   51.6593 H   0  0  0  0  0  0  0  0  0  0  0  0
   29.4911   62.4764   50.0356 H   0  0  0  0  0  0  0  0  0  0  0  0
   29.3736   61.1580   53.4536 H   0  0  0  0  0  0  0  0  0  0  0  0
   30.3017   59.6455   53.1748 H   0  0  0  0  0  0  0  0  0  0  0  0
   31.1467   61.2307   53.1748 H   0  0  0  0  0  0  0  0  0  0  0  0
   28.0357   60.0786   51.9804 H   0  0  0  0  0  0  0  0  0  0  0  0
   28.0378   61.0441   50.4656 H   0  0  0  0  0  0  0  0  0  0  0  0
   28.6931   59.3716   50.4656 H   0  0  0  0  0  0  0  0  0  0  0  0
   33.5845   64.0406   54.2264 H   0  0  0  0  0  0  0  0  0  0  0  0
   33.5620   62.4541   53.3190 H   0  0  0  0  0  0  0  0  0  0  0  0
   35.0102   62.6890   55.4828 H   0  0  0  0  0  0  0  0  0  0  0  0
   35.6649   61.8560   54.0191 H   0  0  0  0  0  0  0  0  0  0  0  0
  1  2  1  0
  2  3  1  0
  3  4  1  0
  4  5  2  0
  4  6  1  0
  6  7  1  0
  7  8  1  0
  8  9  1  0
  9 10  2  0
 10 11  1  0
 11 12  2  0
 12 13  1  0
 13 14  2  0
 14 15  1  0
 15 16  1  0
 16 17  2  0
 16 18  1  0
 18 19  1  0
 19 20  1  0
 20 21  1  0
 21 22  1  0
 22 23  1  0
 23 24  1  0
 24 25  1  0
 26 25  1  6
 26 27  1  0
 26 28  1  0
 28 29  1  0
 29 30  1  0
 29 31  1  0
 29 32  1  0
 32 33  1  0
 33 34  2  0
 21 35  1  0
 35 36  1  0
 15  7  2  0
 36 18  1  0
 14  9  1  0
 27 22  1  0
 33 26  1  0
  1 37  1  0
  1 38  1  0
  1 39  1  0
  2 40  1  0
  2 41  1  0
  3 42  1  0
  6 43  1  0
 10 44  1  0
 11 45  1  0
 12 46  1  0
 13 47  1  0
 19 48  1  0
 19 49  1  0
 20 50  1  0
 20 51  1  0
 21 52  1  0
 23 53  1  0
 23 54  1  0
 24 55  1  0
 24 56  1  0
 25 57  1  0
 25 58  1  0
 27 59  1  0
 27 60  1  0
 28 61  1  0
 28 62  1  0
 30 63  1  0
 30 64  1  0
 30 65  1  0
 31 66  1  0
 31 67  1  0
 31 68  1  0
 35 69  1  0
 35 70  1  0
 36 71  1  0
 36 72  1  0
M  END
>  <meeko>  (2) 
{"is_sidechain": [false], "free_energy": -10.018, "intermolecular_energy": -12.172, "internal_energy": -1.345}

$$$$
seed-1002
     RDKit          3D

 72 76  0  0  0  0  0  0  0  0999 V2000
   38.4650   70.2950   49.3200 C   0  0  0  0  0  0  0  0  0  0  0  0
   38.1480   70.2870   50.8050 C   0  0  0  0  0  0  0  0  0  0  0  0
   38.0760   68.9420   51.3360 N   0  0  0  0  0  0  0  0  0  0  0  0
   38.3880   68.6790   52.6600 C   0  0  0  0  0  0  0  0  0  0  0  0
   38.6820   69.5710   53.4440 O   0  0  0  0  0  0  0  0  0  0  0  0
   38.3090   67.3250   52.9110 N   0  0  0  0  0  0  0  0  0  0  0  0
   38.5450   66.6720   54.1120 C   0  0  0  0  0  0  0  0  0  0  0  0
   40.1100   66.3640   54.6710 S   0  0  0  0  0  0  0  0  0  0  0  0
   39.5490   65.7140   56.1570 C   0  0  0  0  0  0  0  0  0  0  0  0
   40.3400   65.2590   57.2300 C   0  0  0  0  0  0  0  0  0  0  0  0
   39.7110   64.7870   58.3840 C   0  0  0  0  0  0  0  0  0  0  0  0
   38.3280   64.7720   58.4730 C   0  0  0  0  0  0  0  0  0  0  0  0
   37.5490   65.2180   57.4010 C   0  0  0  0  0  0  0  0  0  0  0  0
   38.1530   65.6850   56.2040 C   0  0  0  0  0  0  0  0  0  0  0  0
   37.5750   66.1710   54.9650 C   0  0  0  0  0  0  0  0  0  0  0  0
   36.1540   66.2250   54.6220 C   0  0  0  0  0  0  0  0  0  0  0  0
   35.6470   67.2840   54.2560 O   0  0  0  0  0  0  0  0  0  0  0  0
   35.4270   65.0310   54.6510 N   0  0  0  0  0  0  0  0  0  0  0  0
   36.0400   63.7100   54.5100 C   0  0  0  0  0  0  0  0  0  0  0  0
   35.1890   62.7490   53.6670 C   0  0  0  0  0  0  0  0  0  0  0  0
   34.5600   63.4840   52.4630 C   0  0  0  0  0  0  0  0  0  0  0  0
   33.7780   62.6090   51.5450 N   0  0  0  0  0  0  0  0  0  0  0  0
   32.4560   63.1900   51.2450 C   0  0  0  0  0  0  0  0  0  0  0  0
   31.5480   62.1580   50.5760 C   0  0  0  0  0  0  0  0  0  0  0  0
   32.2940   61.1250   49.7330 C   0  0  0  0  0  0  0  0  0  0  0  0
   33.6280   61.6400   49.1820 C   0  0  1  0  0  0  0  0  0  0  0  0
   34.4830   62.3370   50.2700 C   0  0  0  0  0  0  0  0  0  0  0  0
   34.3770   60.4980   48.4820 C   0  0  0  0  0  0  0  0  0  0  0  0
   35.0710   61.1510   47.2970 C   0  0  0  0  0  0  0  0  0  0  0  0
   36.4850   61.6440   47.6130 C   0  0  0  0  0  0  0  0  0  0  0  0
   35.1090   60.2190   46.0870 C   0  0  0  0  0  0  0  0  0  0  0  0
   34.2460   62.2760   46.9740 O   0  0  0  0  0  0  0  0  0  0  0  0
   33.4220   62.5900   48.0170 C   0  0  0  0  0  0  0  0  0  0  0  0
   32.6500   63.5350   47.9910 O   0  0  0  0  0  0  0  0  0  0  0  0
   33.6720   64.6500   52.9810 C   0  0  0  0  0  0  0  0  0  0  0  0
   33.9970   65.0800   54.4080 C   0  0  0  0  0  0  0  0  0  0  0  0
   39.5554   70.3225   49.1780 H   0  0  0  0  0  0  0  0  0  0  0  0
   38.0572   69.3863   48.8531 H   0  0  0  0  0  0  0  0  0  0  0  0
   38.0119   71.1820   48.8531 H   0  0  0  0  0  0  0  0  0  0  0  0
   38.9357   70.8383   51.3394 H   0  0  0  0  0  0  0  0  0  0  0  0
   37.1656   70.7614   50.9457 H   0  0  0  0  0  0  0  0  0  0  0  0
   38.1840   68.1830   50.6810 H   0  0  0  0  0  0  0  0  0  0  0  0
   37.8520   66.7650   52.2010 H   0  0  0  0  0  0  0  0  0  0  0  0
   41.4376   65.2752   57.1599 H   0  0  0  0  0  0  0  0  0  0  0  0
   40.3170   64.4249   59.2276 H   0  0  0  0  0  0  0  0  0  0  0  0
   37.8416   64.4080   59.3900 H   0  0  0  0  0  0  0  0  0  0  0  0
   36.4524   65.2069   57.4863 H   0  0  0  0  0  0  0  0  0  0  0  0
   37.0213   63.8271   54.0270 H   0  0  0  0  0  0  0  0  0  0  0  0
   36.1315   63.2768   55.5170 H   0  0  0  0  0  0  0  0  0  0  0  0
   35.8267   61.9323   53.2977 H   0  0  0  0  0  0  0  0  0  0  0  0
   34.3807   62.3494   54.2970 H   0  0  0  0  0  0  0  0  0  0  0  0
   35.3972   63.8645   51.8594 H   0  0  0  0  0  0  0  0  0  0  0  0
   31.9893   63.5271   52.1823 H   0  0  0  0  0  0  0  0  0  0  0  0
   32.5916   64.0381   50.5578 H   0  0  0  0  0  0  0  0  0  0  0  0
   30.9918   61.6261   51.3619 H   0  0  0  0  0  0  0  0  0  0  0  0
   30.8895   62.7115   49.8904 H   0  0  0  0  0  0  0  0  0  0  0  0
   32.4923   60.2419   50.3582 H   0  0  0  0  0  0  0  0  0  0  0  0
   31.6554   60.8873   48.8695 H   0  0  0  0  0  0  0  0  0  0  0  0
   35.3471   61.6925   50.4891 H   0  0  0  0  0  0  0  0  0  0  0  0
   34.7617   63.3184   49.8586 H   0  0  0  0  0  0  0  0  0  0  0  0
   35.1148   60.0460   49.1612 H   0  0  0  0  0  0  0  0  0  0  0  0
   33.6995   59.6895   48.1700 H   0  0  0  0  0  0  0  0  0  0  0  0
   36.6216   61.6916   48.7034 H   0  0  0  0  0  0  0  0  0  0  0  0
   37.2206   60.9493   47.1813 H   0  0  0  0  0  0  0  0  0  0  0  0
   36.6292   62.6454   47.1813 H   0  0  0  0  0  0  0  0  0  0  0  0
   35.1516   59.1746   46.4298 H   0  0  0  0  0  0  0  0  0  0  0  0
   34.2040   60.3691   45.4800 H   0  0  0  0  0  0  0  0  0  0  0  0
   35.9988   60.4423   45.4800 H   0  0  0  0  0  0  0  0  0  0  0  0
   33.8127   65.5154   52.3168 H   0  0  0  0  0  0  0  0  0  0  0  0
   32.6335   64.2873   52.9828 H   0  0  0  0  0  0  0  0  0  0  0  0
   33.6403   66.1088   54.5642 H   0  0  0  0  0  0  0  0  0  0  0  0
   33.4984   64.3903   55.1049 H   0  0  0  0  0  0  0  0  0  0  0  0
  1  2  1  0
  2  3  1  0
  3  4  1  0
  4  5  2  0
  4  6  1  0
  6  7  1  0
  7  8  1  0
  8  9  1  0
  9 10  2  0
 10 11  1  0
 11 12  2  0
 12 13  1  0
 13 14  2  0
 14 15  1  0
 15 16  1  0
 16 17  2  0
 16 18  1  0
 18 19  1  0
 19 20  1  0
 20 21  1  0
 21 22  1  0
 22 23  1  0
 23 24  1  0
 24 25  1  0
 26 25  1  1
 26 27  1  0
 26 28  1  0
 28 29  1  0
 29 30  1  0
 29 31  1  0
 29 32  1  0
 32 33  1  0
 33 34  2  0
 21 35  1  0
 35 36  1  0
 15  7  2  0
 36 18  1  0
 14  9  1  0
 27 22  1  0
 33 26  1  0
  1 37  1  0
  1 38  1  0
  1 39  1  0
  2 40  1  0
  2 41  1  0
  3 42  1  0
  6 43  1  0
 10 44  1  0
 11 45  1  0
 12 46  1  0
 13 47  1  0
 19 48  1  0
 19 49  1  0
 20 50  1  0
 20 51  1  0
 21 52  1  0
 23 53  1  0
 23 54  1  0
 24 55  1  0
 24 56  1  0
 25 57  1  0
 25 58  1  0
 27 59  1  0
 27 60  1  0
 28 61  1  0
 28 62  1  0
 30 63  1  0
 30 64  1  0
 30 65  1  0
 31 66  1  0
 31 67  1  0
 31 68  1  0
 35 69  1  0
 35 70  1  0
 36 71  1  0
 36 72  1  0
M  END
>  <meeko>  (3) 
{"is_sidechain": [false], "free_energy": -9.833, "intermolecular_energy": -12.089, "internal_energy": -1.2}

$$$$
seed-1002
     RDKit          3D

 72 76  0  0  0  0  0  0  0  0999 V2000
   27.9590   59.0380   53.5360 C   0  0  0  0  0  0  0  0  0  0  0  0
   28.2910   58.9490   52.0580 C   0  0  0  0  0  0  0  0  0  0  0  0
   29.6800   59.2660   51.7940 N   0  0  0  0  0  0  0  0  0  0  0  0
   30.2220   59.1050   50.5300 C   0  0  0  0  0  0  0  0  0  0  0  0
   29.5440   58.7450   49.5770 O   0  0  0  0  0  0  0  0  0  0  0  0
   31.5670   59.4080   50.5430 N   0  0  0  0  0  0  0  0  0  0  0  0
   32.4540   59.3710   49.4770 C   0  0  0  0  0  0  0  0  0  0  0  0
   32.9800   57.9150   48.8000 S   0  0  0  0  0  0  0  0  0  0  0  0
   33.8580   58.7050   47.5560 C   0  0  0  0  0  0  0  0  0  0  0  0
   34.5680   58.0920   46.5040 C   0  0  0  0  0  0  0  0  0  0  0  0
   35.2030   58.8950   45.5550 C   0  0  0  0  0  0  0  0  0  0  0  0
   35.1300   60.2770   45.6440 C   0  0  0  0  0  0  0  0  0  0  0  0
   34.4300   60.8790   46.6940 C   0  0  0  0  0  0  0  0  0  0  0  0
   33.7900   60.0940   47.6900 C   0  0  0  0  0  0  0  0  0  0  0  0
   33.0340   60.4720   48.8680 C   0  0  0  0  0  0  0  0  0  0  0  0
   32.8090   61.8280   49.3690 C   0  0  0  0  0  0  0  0  0  0  0  0
   31.6640   62.2670   49.4700 O   0  0  0  0  0  0  0  0  0  0  0  0
   33.9200   62.5650   49.7920 N   0  0  0  0  0  0  0  0  0  0  0  0
   35.1730   61.9510   50.2330 C   0  0  0  0  0  0  0  0  0  0  0  0
   35.8010   62.6810   51.4290 C   0  0  0  0  0  0  0  0  0  0  0  0
   34.7160   63.1230   52.4350 C   0  0  0  0  0  0  0  0  0  0  0  0
   35.2430   63.7730   53.6670 N   0  0  0  0  0  0  0  0  0  0  0  0
   35.9150   62.7980   54.5460 C   0  0  0  0  0  0  0  0  0  0  0  0
   36.1640   63.3960   55.9300 C   0  0  0  0  0  0  0  0  0  0  0  0
   36.3810   64.9080   55.9260 C   0  0  0  0  0  0  0  0  0  0  0  0
   36.9460   65.4370   54.6040 C   0  0  1  0  0  0  0  0  0  0  0  0
   36.1820   64.8830   53.3750 C   0  0  0  0  0  0  0  0  0  0  0  0
   36.9860   66.9710   54.6330 C   0  0  0  0  0  0  0  0  0  0  0  0
   38.2500   67.3450   53.8740 C   0  0  0  0  0  0  0  0  0  0  0  0
   38.0230   67.5590   52.3760 C   0  0  0  0  0  0  0  0  0  0  0  0
   38.9190   68.5810   54.4750 C   0  0  0  0  0  0  0  0  0  0  0  0
   39.1230   66.2250   54.0580 O   0  0  0  0  0  0  0  0  0  0  0  0
   38.4240   65.1250   54.4620 C   0  0  0  0  0  0  0  0  0  0  0  0
   38.9470   64.0380   54.6510 O   0  0  0  0  0  0  0  0  0  0  0  0
   33.7070   64.0650   51.7200 C   0  0  0  0  0  0  0  0  0  0  0  0
   33.7290   63.9440   50.1990 C   0  0  0  0  0  0  0  0  0  0  0  0
   28.8545   58.7980   54.1280 H   0  0  0  0  0  0  0  0  0  0  0  0
   27.6235   60.0578   53.7757 H   0  0  0  0  0  0  0  0  0  0  0  0
   27.1584   58.3228   53.7757 H   0  0  0  0  0  0  0  0  0  0  0  0
   28.0877   57.9257   51.7093 H   0  0  0  0  0  0  0  0  0  0  0  0
   27.6678   59.6820   51.5249 H   0  0  0  0  0  0  0  0  0  0  0  0
   30.3170   59.2210   52.5750 H   0  0  0  0  0  0  0  0  0  0  0  0
   31.9100   59.8850   51.3690 H   0  0  0  0  0  0  0  0  0  0  0  0
   34.6210   56.9957   46.4318 H   0  0  0  0  0  0  0  0  0  0  0  0
   35.7645   58.4289   44.7319 H   0  0  0  0  0  0  0  0  0  0  0  0
   35.6246   60.9019   44.8858 H   0  0  0  0  0  0  0  0  0  0  0  0
   34.3741   61.9762   46.7496 H   0  0  0  0  0  0  0  0  0  0  0  0
   34.9716   60.9091   50.5227 H   0  0  0  0  0  0  0  0  0  0  0  0
   35.8847   62.0099   49.3964 H   0  0  0  0  0  0  0  0  0  0  0  0
   36.5065   62.0048   51.9339 H   0  0  0  0  0  0  0  0  0  0  0  0
   36.3242   63.5755   51.0601 H   0  0  0  0  0  0  0  0  0  0  0  0
   34.2206   62.2036   52.7805 H   0  0  0  0  0  0  0  0  0  0  0  0
   35.2792   61.9061   54.6477 H   0  0  0  0  0  0  0  0  0  0  0  0
   36.8834   62.5292   54.0988 H   0  0  0  0  0  0  0  0  0  0  0  0
   35.2932   63.1736   56.5642 H   0  0  0  0  0  0  0  0  0  0  0  0
   37.0921   62.9433   56.3090 H   0  0  0  0  0  0  0  0  0  0  0  0
   35.4151   65.3996   56.1142 H   0  0  0  0  0  0  0  0  0  0  0  0
   37.1206   65.1324   56.7087 H   0  0  0  0  0  0  0  0  0  0  0  0
   35.6065   65.7085   52.9308 H   0  0  0  0  0  0  0  0  0  0  0  0
   36.9457   64.4692   52.7001 H   0  0  0  0  0  0  0  0  0  0  0  0
   36.0984   67.3906   54.1368 H   0  0  0  0  0  0  0  0  0  0  0  0
   36.9881   67.3654   55.6598 H   0  0  0  0  0  0  0  0  0  0  0  0
   37.2298   68.3067   52.2285 H   0  0  0  0  0  0  0  0  0  0  0  0
   38.9541   67.9156   51.9113 H   0  0  0  0  0  0  0  0  0  0  0  0
   37.7219   66.6085   51.9113 H   0  0  0  0  0  0  0  0  0  0  0  0
   38.8854   68.5189   55.5727 H   0  0  0  0  0  0  0  0  0  0  0  0
   39.9664   68.6293   54.1424 H   0  0  0  0  0  0  0  0  0  0  0  0
   38.3867   69.4843   54.1424 H   0  0  0  0  0  0  0  0  0  0  0  0
   32.6941   63.8218   52.0734 H   0  0  0  0  0  0  0  0  0  0  0  0
   33.9999   65.0965   51.9653 H   0  0  0  0  0  0  0  0  0  0  0  0
   32.7736   64.3097   49.7948 H   0  0  0  0  0  0  0  0  0  0  0  0
   34.5653   64.5439   49.8109 H   0  0  0  0  0  0  0  0  0  0  0  0
  1  2  1  0
  2  3  1  0
  3  4  1  0
  4  5  2  0
  4  6  1  0
  6  7  1  0
  7  8  1  0
  8  9  1  0
  9 10  2  0
 10 11  1  0
 11 12  2  0
 12 13  1  0
 13 14  2  0
 14 15  1  0
 15 16  1  0
 16 17  2  0
 16 18  1  0
 18 19  1  0
 19 20  1  0
 20 21  1  0
 21 22  1  0
 22 23  1  0
 23 24  1  0
 24 25  1  0
 26 25  1  1
 26 27  1  0
 26 28  1  0
 28 29  1  0
 29 30  1  0
 29 31  1  0
 29 32  1  0
 32 33  1  0
 33 34  2  0
 21 35  1  0
 35 36  1  0
 15  7  2  0
 36 18  1  0
 14  9  1  0
 27 22  1  0
 33 26  1  0
  1 37  1  0
  1 38  1  0
  1 39  1  0
  2 40  1  0
  2 41  1  0
  3 42  1  0
  6 43  1  0
 10 44  1  0
 11 45  1  0
 12 46  1  0
 13 47  1  0
 19 48  1  0
 19 49  1  0
 20 50  1  0
 20 51  1  0
 21 52  1  0
 23 53  1  0
 23 54  1  0
 24 55  1  0
 24 56  1  0
 25 57  1  0
 25 58  1  0
 27 59  1  0
 27 60  1  0
 28 61  1  0
 28 62  1  0
 30 63  1  0
 30 64  1  0
 30 65  1  0
 31 66  1  0
 31 67  1  0
 31 68  1  0
 35 69  1  0
 35 70  1  0
 36 71  1  0
 36 72  1  0
M  END
>  <meeko>  (4) 
{"is_sidechain": [false], "free_energy": -9.474, "intermolecular_energy": -11.497, "internal_energy": -1.349}

$$$$
seed-1002
     RDKit          3D

 72 76  0  0  0  0  0  0  0  0999 V2000
   28.8060   59.0670   53.1240 C   0  0  0  0  0  0  0  0  0  0  0  0
   28.8610   59.9960   51.9250 C   0  0  0  0  0  0  0  0  0  0  0  0
   30.2210   60.2510   51.4980 N   0  0  0  0  0  0  0  0  0  0  0  0
   30.7130   59.7140   50.3190 C   0  0  0  0  0  0  0  0  0  0  0  0
   30.0090   59.0540   49.5670 O   0  0  0  0  0  0  0  0  0  0  0  0
   32.0430   60.0410   50.1610 N   0  0  0  0  0  0  0  0  0  0  0  0
   32.8820   59.6940   49.1120 C   0  0  0  0  0  0  0  0  0  0  0  0
   33.1510   58.0840   48.6770 S   0  0  0  0  0  0  0  0  0  0  0  0
   34.1060   58.5160   47.3190 C   0  0  0  0  0  0  0  0  0  0  0  0
   34.6790   57.6380   46.3770 C   0  0  0  0  0  0  0  0  0  0  0  0
   35.4060   58.1680   45.3100 C   0  0  0  0  0  0  0  0  0  0  0  0
   35.5570   59.5400   45.1760 C   0  0  0  0  0  0  0  0  0  0  0  0
   34.9920   60.4050   46.1180 C   0  0  0  0  0  0  0  0  0  0  0  0
   34.2630   59.9010   47.2280 C   0  0  0  0  0  0  0  0  0  0  0  0
   33.6120   60.5770   48.3330 C   0  0  0  0  0  0  0  0  0  0  0  0
   33.6190   62.0130   48.6100 C   0  0  0  0  0  0  0  0  0  0  0  0
   32.6440   62.7050   48.3160 O   0  0  0  0  0  0  0  0  0  0  0  0
   34.7250   62.5470   49.2800 N   0  0  0  0  0  0  0  0  0  0  0  0
   35.6070   61.7550   50.1380 C   0  0  0  0  0  0  0  0  0  0  0  0
   36.0540   62.5180   51.3930 C   0  0  0  0  0  0  0  0  0  0  0  0
   34.8900   63.3490   51.9740 C   0  0  0  0  0  0  0  0  0  0  0  0
   35.2120   64.0640   53.2400 N   0  0  0  0  0  0  0  0  0  0  0  0
   34.2460   63.7360   54.3050 C   0  0  0  0  0  0  0  0  0  0  0  0
   34.3860   64.7000   55.4830 C   0  0  0  0  0  0  0  0  0  0  0  0
   35.8030   65.2390   55.6820 C   0  0  0  0  0  0  0  0  0  0  0  0
   36.8910   64.2950   55.1580 C   0  0  1  0  0  0  0  0  0  0  0  0
   36.5810   63.7790   53.7300 C   0  0  0  0  0  0  0  0  0  0  0  0
   38.2620   64.9770   55.2570 C   0  0  0  0  0  0  0  0  0  0  0  0
   39.2300   63.8620   55.6200 C   0  0  0  0  0  0  0  0  0  0  0  0
   39.8580   63.1790   54.4040 C   0  0  0  0  0  0  0  0  0  0  0  0
   40.3300   64.3580   56.5570 C   0  0  0  0  0  0  0  0  0  0  0  0
   38.4290   62.9090   56.3280 O   0  0  0  0  0  0  0  0  0  0  0  0
   37.1010   63.1150   56.0870 C   0  0  0  0  0  0  0  0  0  0  0  0
   36.2250   62.4050   56.5540 O   0  0  0  0  0  0  0  0  0  0  0  0
   34.3930   64.3580   50.8990 C   0  0  0  0  0  0  0  0  0  0  0  0
   34.7950   63.9830   49.4760 C   0  0  0  0  0  0  0  0  0  0  0  0
   28.8411   59.6604   54.0495 H   0  0  0  0  0  0  0  0  0  0  0  0
   27.8719   58.4867   53.0957 H   0  0  0  0  0  0  0  0  0  0  0  0
   29.6651   58.3806   53.0957 H   0  0  0  0  0  0  0  0  0  0  0  0
   28.3081   59.5352   51.0931 H   0  0  0  0  0  0  0  0  0  0  0  0
   28.4114   60.9561   52.2183 H   0  0  0  0  0  0  0  0  0  0  0  0
   30.8940   60.4710   52.2160 H   0  0  0  0  0  0  0  0  0  0  0  0
   32.4020   60.7640   50.7760 H   0  0  0  0  0  0  0  0  0  0  0  0
   34.5549   56.5500   46.4813 H   0  0  0  0  0  0  0  0  0  0  0  0
   35.8621   57.4932   44.5707 H   0  0  0  0  0  0  0  0  0  0  0  0
   36.1230   59.9490   44.3260 H   0  0  0  0  0  0  0  0  0  0  0  0
   35.1138   61.4916   45.9978 H   0  0  0  0  0  0  0  0  0  0  0  0
   35.0711   60.8466   50.4506 H   0  0  0  0  0  0  0  0  0  0  0  0
   36.5091   61.5151   49.5560 H   0  0  0  0  0  0  0  0  0  0  0  0
   36.3956   61.7972   52.1505 H   0  0  0  0  0  0  0  0  0  0  0  0
   36.8712   63.2009   51.1176 H   0  0  0  0  0  0  0  0  0  0  0  0
   34.0990   62.6316   52.2379 H   0  0  0  0  0  0  0  0  0  0  0  0
   33.2256   63.8073   53.9004 H   0  0  0  0  0  0  0  0  0  0  0  0
   34.4474   62.7146   54.6603 H   0  0  0  0  0  0  0  0  0  0  0  0
   33.7123   65.5529   55.3136 H   0  0  0  0  0  0  0  0  0  0  0  0
   34.1317   64.1322   56.3902 H   0  0  0  0  0  0  0  0  0  0  0  0
   35.8889   66.1989   55.1517 H   0  0  0  0  0  0  0  0  0  0  0  0
   35.9606   65.3477   56.7652 H   0  0  0  0  0  0  0  0  0  0  0  0
   37.2951   64.2471   53.0365 H   0  0  0  0  0  0  0  0  0  0  0  0
   36.6671   62.6833   53.7758 H   0  0  0  0  0  0  0  0  0  0  0  0
   38.5386   65.4310   54.2940 H   0  0  0  0  0  0  0  0  0  0  0  0
   38.2678   65.7879   56.0003 H   0  0  0  0  0  0  0  0  0  0  0  0
   40.5666   62.4083   54.7416 H   0  0  0  0  0  0  0  0  0  0  0  0
   39.0684   62.7108   53.7979 H   0  0  0  0  0  0  0  0  0  0  0  0
   40.3907   63.9266   53.7979 H   0  0  0  0  0  0  0  0  0  0  0  0
   40.0142   64.2156   57.6010 H   0  0  0  0  0  0  0  0  0  0  0  0
   41.2531   63.7890   56.3723 H   0  0  0  0  0  0  0  0  0  0  0  0
   40.5147   65.4265   56.3723 H   0  0  0  0  0  0  0  0  0  0  0  0
   33.2952   64.4063   50.9488 H   0  0  0  0  0  0  0  0  0  0  0  0
   34.8654   65.3259   51.1228 H   0  0  0  0  0  0  0  0  0  0  0  0
   34.1140   64.4769   48.7673 H   0  0  0  0  0  0  0  0  0  0  0  0
   35.8309   64.3111   49.3052 H   0  0  0  0  0  0  0  0  0  0  0  0
  1  2  1  0
  2  3  1  0
  3  4  1  0
  4  5  2  0
  4  6  1  0
  6  7  1  0
  7  8  1  0
  8  9  1  0
  9 10  2  0
 10 11  1  0
 11 12  2  0
 12 13  1  0
 13 14  2  0
 14 15  1  0
 15 16  1  0
 16 17  2  0
 16 18  1  0
 18 19  1  0
 19 20  1  0
 20 21  1  0
 21 22  1  0
 22 23  1  0
 23 24  1  0
 24 25  1  0
 26 25  1  1
 26 27  1  0
 26 28  1  0
 28 29  1  0
 29 30  1  0
 29 31  1  0
 29 32  1  0
 32 33  1  0
 33 34  2  0
 21 35  1  0
 35 36  1  0
 15  7  2  0
 36 18  1  0
 14  9  1  0
 27 22  1  0
 33 26  1  0
  1 37  1  0
  1 38  1  0
  1 39  1  0
  2 40  1  0
  2 41  1  0
  3 42  1  0
  6 43  1  0
 10 44  1  0
 11 45  1  0
 12 46  1  0
 13 47  1  0
 19 48  1  0
 19 49  1  0
 20 50  1  0
 20 51  1  0
 21 52  1  0
 23 53  1  0
 23 54  1  0
 24 55  1  0
 24 56  1  0
 25 57  1  0
 25 58  1  0
 27 59  1  0
 27 60  1  0
 28 61  1  0
 28 62  1  0
 30 63  1  0
 30 64  1  0
 30 65  1  0
 31 66  1  0
 31 67  1  0
 31 68  1  0
 35 69  1  0
 35 70  1  0
 36 71  1  0
 36 72  1  0
M  END
>  <meeko>  (5) 
{"is_sidechain": [false], "free_energy": -9.225, "intermolecular_energy": -11.231, "internal_energy": -1.307}

$$$$
seed-1002
     RDKit          3D

 72 76  0  0  0  0  0  0  0  0999 V2000
   29.3870   61.1710   54.6340 C   0  0  0  0  0  0  0  0  0  0  0  0
   29.4420   61.9340   53.3230 C   0  0  0  0  0  0  0  0  0  0  0  0
   30.8040   62.1830   52.8980 N   0  0  0  0  0  0  0  0  0  0  0  0
   31.2250   61.8550   51.6190 C   0  0  0  0  0  0  0  0  0  0  0  0
   30.4580   61.3970   50.7840 O   0  0  0  0  0  0  0  0  0  0  0  0
   32.5690   62.1240   51.4730 N   0  0  0  0  0  0  0  0  0  0  0  0
   33.3530   61.9360   50.3440 C   0  0  0  0  0  0  0  0  0  0  0  0
   33.2910   60.5090   49.4400 S   0  0  0  0  0  0  0  0  0  0  0  0
   34.3640   61.1120   48.2450 C   0  0  0  0  0  0  0  0  0  0  0  0
   34.7720   60.4540   47.0680 C   0  0  0  0  0  0  0  0  0  0  0  0
   35.6320   61.1110   46.1860 C   0  0  0  0  0  0  0  0  0  0  0  0
   36.0730   62.3960   46.4630 C   0  0  0  0  0  0  0  0  0  0  0  0
   35.6700   63.0410   47.6360 C   0  0  0  0  0  0  0  0  0  0  0  0
   34.8130   62.3960   48.5670 C   0  0  0  0  0  0  0  0  0  0  0  0
   34.2800   62.8340   49.8420 C   0  0  0  0  0  0  0  0  0  0  0  0
   34.5800   64.0880   50.5340 C   0  0  0  0  0  0  0  0  0  0  0  0
   33.7140   64.9550   50.6470 O   0  0  0  0  0  0  0  0  0  0  0  0
   35.8430   64.2280   51.1190 N   0  0  0  0  0  0  0  0  0  0  0  0
   36.6750   63.0940   51.5200 C   0  0  0  0  0  0  0  0  0  0  0  0
   37.4150   63.3410   52.8430 C   0  0  0  0  0  0  0  0  0  0  0  0
   36.5060   64.0760   53.8510 C   0  0  0  0  0  0  0  0  0  0  0  0
   37.1170   64.2900   55.1930 N   0  0  0  0  0  0  0  0  0  0  0  0
   36.1000   64.2520   56.2600 C   0  0  0  0  0  0  0  0  0  0  0  0
   36.6710   64.7840   57.5750 C   0  0  0  0  0  0  0  0  0  0  0  0
   38.1700   64.5420   57.7450 C   0  0  0  0  0  0  0  0  0  0  0  0
   38.6810   63.3220   56.9720 C   0  0  1  0  0  0  0  0  0  0  0  0
   38.1780   63.3040   55.5060 C   0  0  0  0  0  0  0  0  0  0  0  0
   40.2100   63.2450   57.0740 C   0  0  0  0  0  0  0  0  0  0  0  0
   40.5240   61.7580   57.1490 C   0  0  0  0  0  0  0  0  0  0  0  0
   40.7630   61.1150   55.7820 C   0  0  0  0  0  0  0  0  0  0  0  0
   41.7170   61.4830   58.0640 C   0  0  0  0  0  0  0  0  0  0  0  0
   39.3580   61.1750   57.7420 O   0  0  0  0  0  0  0  0  0  0  0  0
   38.2920   62.0240   57.6550 C   0  0  0  0  0  0  0  0  0  0  0  0
   37.1780   61.7340   58.0600 O   0  0  0  0  0  0  0  0  0  0  0  0
   36.0580   65.4350   53.2420 C   0  0  0  0  0  0  0  0  0  0  0  0
   36.1930   65.4990   51.7240 C   0  0  0  0  0  0  0  0  0  0  0  0
   29.4381   61.8801   55.4734 H   0  0  0  0  0  0  0  0  0  0  0  0
   28.4457   60.6045   54.6894 H   0  0  0  0  0  0  0  0  0  0  0  0
   30.2373   60.4754   54.6894 H   0  0  0  0  0  0  0  0  0  0  0  0
   28.9298   61.3455   52.5476 H   0  0  0  0  0  0  0  0  0  0  0  0
   28.9497   62.9060   53.4742 H   0  0  0  0  0  0  0  0  0  0  0  0
   31.5100   62.2190   53.6170 H   0  0  0  0  0  0  0  0  0  0  0  0
   32.9930   62.6920   52.1980 H   0  0  0  0  0  0  0  0  0  0  0  0
   34.4178   59.4363   46.8469 H   0  0  0  0  0  0  0  0  0  0  0  0
   35.9617   60.6062   45.2659 H   0  0  0  0  0  0  0  0  0  0  0  0
   36.7423   62.9098   45.7573 H   0  0  0  0  0  0  0  0  0  0  0  0
   36.0217   64.0629   47.8409 H   0  0  0  0  0  0  0  0  0  0  0  0
   36.0318   62.2092   51.6363 H   0  0  0  0  0  0  0  0  0  0  0  0
   37.4336   62.9451   50.7375 H   0  0  0  0  0  0  0  0  0  0  0  0
   37.7207   62.3749   53.2710 H   0  0  0  0  0  0  0  0  0  0  0  0
   38.2968   63.9671   52.6420 H   0  0  0  0  0  0  0  0  0  0  0  0
   35.6420   63.4181   54.0260 H   0  0  0  0  0  0  0  0  0  0  0  0
   35.2419   64.8726   55.9624 H   0  0  0  0  0  0  0  0  0  0  0  0
   35.7851   63.2087   56.4093 H   0  0  0  0  0  0  0  0  0  0  0  0
   36.4886   65.8679   57.6178 H   0  0  0  0  0  0  0  0  0  0  0  0
   36.1666   64.2371   58.3852 H   0  0  0  0  0  0  0  0  0  0  0  0
   38.7095   65.4318   57.3883 H   0  0  0  0  0  0  0  0  0  0  0  0
   38.3485   64.3478   58.8129 H   0  0  0  0  0  0  0  0  0  0  0  0
   39.0364   63.5070   54.8488 H   0  0  0  0  0  0  0  0  0  0  0  0
   37.7301   62.3118   55.3481 H   0  0  0  0  0  0  0  0  0  0  0  0
   40.6800   63.6954   56.1873 H   0  0  0  0  0  0  0  0  0  0  0  0
   40.5946   63.7935   57.9465 H   0  0  0  0  0  0  0  0  0  0  0  0
   41.1432   60.0920   55.9194 H   0  0  0  0  0  0  0  0  0  0  0  0
   39.8170   61.0824   55.2217 H   0  0  0  0  0  0  0  0  0  0  0  0
   41.5007   61.7082   55.2217 H   0  0  0  0  0  0  0  0  0  0  0  0
   41.3982   61.5565   59.1142 H   0  0  0  0  0  0  0  0  0  0  0  0
   42.1040   60.4721   57.8681 H   0  0  0  0  0  0  0  0  0  0  0  0
   42.5074   62.2225   57.8681 H   0  0  0  0  0  0  0  0  0  0  0  0
   35.0030   65.6026   53.5045 H   0  0  0  0  0  0  0  0  0  0  0  0
   36.7209   66.2083   53.6573 H   0  0  0  0  0  0  0  0  0  0  0  0
   35.5224   66.2796   51.3354 H   0  0  0  0  0  0  0  0  0  0  0  0
   37.2387   65.7312   51.4737 H   0  0  0  0  0  0  0  0  0  0  0  0
  1  2  1  0
  2  3  1  0
  3  4  1  0
  4  5  2  0
  4  6  1  0
  6  7  1  0
  7  8  1  0
  8  9  1  0
  9 10  2  0
 10 11  1  0
 11 12  2  0
 12 13  1  0
 13 14  2  0
 14 15  1  0
 15 16  1  0
 16 17  2  0
 16 18  1  0
 18 19  1  0
 19 20  1  0
 20 21  1  0
 21 22  1  0
 22 23  1  0
 23 24  1  0
 24 25  1  0
 26 25  1  1
 26 27  1  0
 26 28  1  0
 28 29  1  0
 29 30  1  0
 29 31  1  0
 29 32  1  0
 32 33  1  0
 33 34  2  0
 21 35  1  0
 35 36  1  0
 15  7  2  0
 36 18  1  0
 14  9  1  0
 27 22  1  0
 33 26  1  0
  1 37  1  0
  1 38  1  0
  1 39  1  0
  2 40  1  0
  2 41  1  0
  3 42  1  0
  6 43  1  0
 10 44  1  0
 11 45  1  0
 12 46  1  0
 13 47  1  0
 19 48  1  0
 19 49  1  0
 20 50  1  0
 20 51  1  0
 21 52  1  0
 23 53  1  0
 23 54  1  0
 24 55  1  0
 24 56  1  0
 25 57  1  0
 25 58  1  0
 27 59  1  0
 27 60  1  0
 28 61  1  0
 28 62  1  0
 30 63  1  0
 30 64  1  0
 30 65  1  0
 31 66  1  0
 31 67  1  0
 31 68  1  0
 35 69  1  0
 35 70  1  0
 36 71  1  0
 36 72  1  0
M  END
>  <meeko>  (6) 
{"is_sidechain": [false], "free_energy": -8.757, "intermolecular_energy": -10.78, "internal_energy": -1.181}

$$$$
seed-1002
     RDKit          3D

 72 76  0  0  0  0  0  0  0  0999 V2000
   29.3610   60.9300   54.6940 C   0  0  0  0  0  0  0  0  0  0  0  0
   29.2720   61.5460   53.3090 C   0  0  0  0  0  0  0  0  0  0  0  0
   30.5570   62.0290   52.8480 N   0  0  0  0  0  0  0  0  0  0  0  0
   31.0680   61.6410   51.6200 C   0  0  0  0  0  0  0  0  0  0  0  0
   30.4370   60.9250   50.8560 O   0  0  0  0  0  0  0  0  0  0  0  0
   32.3250   62.1760   51.4330 N   0  0  0  0  0  0  0  0  0  0  0  0
   33.1560   62.0210   50.3330 C   0  0  0  0  0  0  0  0  0  0  0  0
   33.2790   60.5540   49.5040 S   0  0  0  0  0  0  0  0  0  0  0  0
   34.3110   61.2140   48.3040 C   0  0  0  0  0  0  0  0  0  0  0  0
   34.8230   60.5480   47.1720 C   0  0  0  0  0  0  0  0  0  0  0  0
   35.6290   61.2520   46.2770 C   0  0  0  0  0  0  0  0  0  0  0  0
   35.9180   62.5910   46.4960 C   0  0  0  0  0  0  0  0  0  0  0  0
   35.4130   63.2440   47.6250 C   0  0  0  0  0  0  0  0  0  0  0  0
   34.6060   62.5530   48.5680 C   0  0  0  0  0  0  0  0  0  0  0  0
   33.9920   62.9920   49.8060 C   0  0  0  0  0  0  0  0  0  0  0  0
   34.1320   64.3040   50.4390 C   0  0  0  0  0  0  0  0  0  0  0  0
   33.1800   65.0830   50.4630 O   0  0  0  0  0  0  0  0  0  0  0  0
   35.3440   64.6020   51.0710 N   0  0  0  0  0  0  0  0  0  0  0  0
   36.2630   63.5800   51.5730 C   0  0  0  0  0  0  0  0  0  0  0  0
   36.9060   63.9690   52.9120 C   0  0  0  0  0  0  0  0  0  0  0  0
   35.8800   64.6600   53.8350 C   0  0  0  0  0  0  0  0  0  0  0  0
   36.3980   65.0050   55.1880 N   0  0  0  0  0  0  0  0  0  0  0  0
   36.2910   63.8610   56.1130 C   0  0  0  0  0  0  0  0  0  0  0  0
   36.5180   64.3060   57.5580 C   0  0  0  0  0  0  0  0  0  0  0  0
   37.4630   65.4980   57.7000 C   0  0  0  0  0  0  0  0  0  0  0  0
   38.4740   65.6130   56.5540 C   0  0  1  0  0  0  0  0  0  0  0  0
   37.8040   65.4720   55.1640 C   0  0  0  0  0  0  0  0  0  0  0  0
   39.2750   66.9140   56.6960 C   0  0  0  0  0  0  0  0  0  0  0  0
   40.6800   66.5640   56.2280 C   0  0  0  0  0  0  0  0  0  0  0  0
   40.9030   66.8010   54.7330 C   0  0  0  0  0  0  0  0  0  0  0  0
   41.7410   67.3130   57.0330 C   0  0  0  0  0  0  0  0  0  0  0  0
   40.8100   65.1640   56.5030 O   0  0  0  0  0  0  0  0  0  0  0  0
   39.5860   64.5880   56.6860 C   0  0  0  0  0  0  0  0  0  0  0  0
   39.4390   63.3950   56.8990 O   0  0  0  0  0  0  0  0  0  0  0  0
   35.3320   65.9330   53.1300 C   0  0  0  0  0  0  0  0  0  0  0  0
   35.5360   65.9310   51.6180 C   0  0  0  0  0  0  0  0  0  0  0  0
   29.2472   61.7175   55.4535 H   0  0  0  0  0  0  0  0  0  0  0  0
   28.5612   60.1847   54.8159 H   0  0  0  0  0  0  0  0  0  0  0  0
   30.3390   60.4416   54.8159 H   0  0  0  0  0  0  0  0  0  0  0  0
   28.9047   60.7852   52.6046 H   0  0  0  0  0  0  0  0  0  0  0  0
   28.5849   62.4034   53.3613 H   0  0  0  0  0  0  0  0  0  0  0  0
   31.2230   62.3100   53.5530 H   0  0  0  0  0  0  0  0  0  0  0  0
   32.6000   62.9100   52.0770 H   0  0  0  0  0  0  0  0  0  0  0  0
   34.5901   59.4873   46.9967 H   0  0  0  0  0  0  0  0  0  0  0  0
   36.0379   60.7422   45.3922 H   0  0  0  0  0  0  0  0  0  0  0  0
   36.5462   63.1408   45.7796 H   0  0  0  0  0  0  0  0  0  0  0  0
   35.6439   64.3075   47.7850 H   0  0  0  0  0  0  0  0  0  0  0  0
   35.7055   62.6416   51.7096 H   0  0  0  0  0  0  0  0  0  0  0  0
   37.0716   63.4685   50.8356 H   0  0  0  0  0  0  0  0  0  0  0  0
   37.2829   63.0622   53.4075 H   0  0  0  0  0  0  0  0  0  0  0  0
   37.7305   64.6702   52.7156 H   0  0  0  0  0  0  0  0  0  0  0  0
   35.0778   63.9277   54.0087 H   0  0  0  0  0  0  0  0  0  0  0  0
   35.2873   63.4194   56.0254 H   0  0  0  0  0  0  0  0  0  0  0  0
   37.0603   63.1209   55.8478 H   0  0  0  0  0  0  0  0  0  0  0  0
   35.5455   64.5820   57.9917 H   0  0  0  0  0  0  0  0  0  0  0  0
   36.9905   63.4613   58.0806 H   0  0  0  0  0  0  0  0  0  0  0  0
   36.8614   66.4185   57.7280 H   0  0  0  0  0  0  0  0  0  0  0  0
   38.0375   65.3485   58.6261 H   0  0  0  0  0  0  0  0  0  0  0  0
   37.8278   66.4560   54.6729 H   0  0  0  0  0  0  0  0  0  0  0  0
   38.3739   64.6999   54.6263 H   0  0  0  0  0  0  0  0  0  0  0  0
   38.8431   67.7049   56.0651 H   0  0  0  0  0  0  0  0  0  0  0  0
   39.2659   67.2945   57.7281 H   0  0  0  0  0  0  0  0  0  0  0  0
   41.6509   67.5958   54.5953 H   0  0  0  0  0  0  0  0  0  0  0  0
   41.2633   65.8733   54.2644 H   0  0  0  0  0  0  0  0  0  0  0  0
   39.9551   67.1043   54.2644 H   0  0  0  0  0  0  0  0  0  0  0  0
   41.5492   67.1776   58.1077 H   0  0  0  0  0  0  0  0  0  0  0  0
   42.7368   66.9166   56.7854 H   0  0  0  0  0  0  0  0  0  0  0  0
   41.7008   68.3840   56.7854 H   0  0  0  0  0  0  0  0  0  0  0  0
   34.2538   66.0070   53.3351 H   0  0  0  0  0  0  0  0  0  0  0  0
   35.8943   66.7898   53.5297 H   0  0  0  0  0  0  0  0  0  0  0  0
   34.8120   66.6184   51.1562 H   0  0  0  0  0  0  0  0  0  0  0  0
   36.5650   66.2542   51.4021 H   0  0  0  0  0  0  0  0  0  0  0  0
  1  2  1  0
  2  3  1  0
  3  4  1  0
  4  5  2  0
  4  6  1  0
  6  7  1  0
  7  8  1  0
  8  9  1  0
  9 10  2  0
 10 11  1  0
 11 12  2  0
 12 13  1  0
 13 14  2  0
 14 15  1  0
 15 16  1  0
 16 17  2  0
 16 18  1  0
 18 19  1  0
 19 20  1  0
 20 21  1  0
 21 22  1  0
 22 23  1  0
 23 24  1  0
 24 25  1  0
 26 25  1  1
 26 27  1  0
 26 28  1  0
 28 29  1  0
 29 30  1  0
 29 31  1  0
 29 32  1  0
 32 33  1  0
 33 34  2  0
 21 35  1  0
 35 36  1  0
 15  7  2  0
 36 18  1  0
 14  9  1  0
 27 22  1  0
 33 26  1  0
  1 37  1  0
  1 38  1  0
  1 39  1  0
  2 40  1  0
  2 41  1  0
  3 42  1  0
  6 43  1  0
 10 44  1  0
 11 45  1  0
 12 46  1  0
 13 47  1  0
 19 48  1  0
 19 49  1  0
 20 50  1  0
 20 51  1  0
 21 52  1  0
 23 53  1  0
 23 54  1  0
 24 55  1  0
 24 56  1  0
 25 57  1  0
 25 58  1  0
 27 59  1  0
 27 60  1  0
 28 61  1  0
 28 62  1  0
 30 63  1  0
 30 64  1  0
 30 65  1  0
 31 66  1  0
 31 67  1  0
 31 68  1  0
 35 69  1  0
 35 70  1  0
 36 71  1  0
 36 72  1  0
M  END
>  <meeko>  (7) 
{"is_sidechain": [false], "free_energy": -8.5, "intermolecular_energy": -10.516, "internal_energy": -1.127}

$$$$
seed-1002
     RDKit          3D

 72 76  0  0  0  0  0  0  0  0999 V2000
   38.2970   71.1760   54.4260 C   0  0  0  0  0  0  0  0  0  0  0  0
   37.6770   69.9940   53.7030 C   0  0  0  0  0  0  0  0  0  0  0  0
   37.2570   68.9570   54.6230 N   0  0  0  0  0  0  0  0  0  0  0  0
   38.1210   67.9410   54.9990 C   0  0  0  0  0  0  0  0  0  0  0  0
   39.2820   67.9080   54.6180 O   0  0  0  0  0  0  0  0  0  0  0  0
   37.4760   67.0440   55.8240 N   0  0  0  0  0  0  0  0  0  0  0  0
   38.0030   65.9010   56.4070 C   0  0  0  0  0  0  0  0  0  0  0  0
   38.3130   65.8050   58.0660 S   0  0  0  0  0  0  0  0  0  0  0  0
   38.7720   64.1550   57.9770 C   0  0  0  0  0  0  0  0  0  0  0  0
   39.1390   63.3220   59.0530 C   0  0  0  0  0  0  0  0  0  0  0  0
   39.4550   61.9860   58.8000 C   0  0  0  0  0  0  0  0  0  0  0  0
   39.4020   61.4850   57.5080 C   0  0  0  0  0  0  0  0  0  0  0  0
   39.0450   62.3180   56.4440 C   0  0  0  0  0  0  0  0  0  0  0  0
   38.7370   63.6880   56.6610 C   0  0  0  0  0  0  0  0  0  0  0  0
   38.3660   64.7440   55.7390 C   0  0  0  0  0  0  0  0  0  0  0  0
   38.2910   64.6500   54.2810 C   0  0  0  0  0  0  0  0  0  0  0  0
   39.2630   64.2550   53.6360 O   0  0  0  0  0  0  0  0  0  0  0  0
   37.0710   64.9470   53.6650 N   0  0  0  0  0  0  0  0  0  0  0  0
   35.7810   64.8590   54.3500 C   0  0  0  0  0  0  0  0  0  0  0  0
   34.6700   64.2980   53.4510 C   0  0  0  0  0  0  0  0  0  0  0  0
   35.2030   63.1440   52.5750 C   0  0  0  0  0  0  0  0  0  0  0  0
   34.1730   62.4870   51.7230 N   0  0  0  0  0  0  0  0  0  0  0  0
   32.9600   63.3180   51.6070 C   0  0  0  0  0  0  0  0  0  0  0  0
   31.8040   62.5140   51.0120 C   0  0  0  0  0  0  0  0  0  0  0  0
   32.2430   61.4150   50.0460 C   0  0  0  0  0  0  0  0  0  0  0  0
   33.5810   61.7080   49.3590 C   0  0  1  0  0  0  0  0  0  0  0  0
   34.6670   62.1670   50.3630 C   0  0  0  0  0  0  0  0  0  0  0  0
   34.0170   60.4920   48.5310 C   0  0  0  0  0  0  0  0  0  0  0  0
   34.6870   61.0770   47.2970 C   0  0  0  0  0  0  0  0  0  0  0  0
   36.1950   61.2800   47.4600 C   0  0  0  0  0  0  0  0  0  0  0  0
   34.4120   60.2290   46.0550 C   0  0  0  0  0  0  0  0  0  0  0  0
   34.0610   62.3520   47.1200 O   0  0  0  0  0  0  0  0  0  0  0  0
   33.4310   62.7480   48.2650 C   0  0  0  0  0  0  0  0  0  0  0  0
   32.8550   63.8190   48.3690 O   0  0  0  0  0  0  0  0  0  0  0  0
   36.3730   63.6670   51.6940 C   0  0  0  0  0  0  0  0  0  0  0  0
   37.0040   64.9540   52.2160 C   0  0  0  0  0  0  0  0  0  0  0  0
   38.2173   71.0241   55.5125 H   0  0  0  0  0  0  0  0  0  0  0  0
   39.3569   71.2630   54.1447 H   0  0  0  0  0  0  0  0  0  0  0  0
   37.7661   72.0974   54.1447 H   0  0  0  0  0  0  0  0  0  0  0  0
   36.8008   70.3433   53.1370 H   0  0  0  0  0  0  0  0  0  0  0  0
   38.4380   69.5672   53.0331 H   0  0  0  0  0  0  0  0  0  0  0  0
   36.2690   68.7580   54.6700 H   0  0  0  0  0  0  0  0  0  0  0  0
   36.5820   67.3430   56.1970 H   0  0  0  0  0  0  0  0  0  0  0  0
   39.1759   63.7192   60.0781 H   0  0  0  0  0  0  0  0  0  0  0  0
   39.7478   61.3267   59.6304 H   0  0  0  0  0  0  0  0  0  0  0  0
   39.6418   60.4281   57.3199 H   0  0  0  0  0  0  0  0  0  0  0  0
   39.0019   61.9073   55.4245 H   0  0  0  0  0  0  0  0  0  0  0  0
   35.8913   64.2016   55.2250 H   0  0  0  0  0  0  0  0  0  0  0  0
   35.4893   65.8788   54.6416 H   0  0  0  0  0  0  0  0  0  0  0  0
   33.8507   63.9229   54.0819 H   0  0  0  0  0  0  0  0  0  0  0  0
   34.3095   65.1023   52.7929 H   0  0  0  0  0  0  0  0  0  0  0  0
   35.5485   62.3633   53.2687 H   0  0  0  0  0  0  0  0  0  0  0  0
   32.6724   63.6772   52.6061 H   0  0  0  0  0  0  0  0  0  0  0  0
   33.1773   64.1668   50.9419 H   0  0  0  0  0  0  0  0  0  0  0  0
   31.2470   62.0466   51.8374 H   0  0  0  0  0  0  0  0  0  0  0  0
   31.1906   63.2200   50.4329 H   0  0  0  0  0  0  0  0  0  0  0  0
   32.3382   60.4742   50.6080 H   0  0  0  0  0  0  0  0  0  0  0  0
   31.4794   61.3521   49.2567 H   0  0  0  0  0  0  0  0  0  0  0  0
   35.4109   61.3615   50.4517 H   0  0  0  0  0  0  0  0  0  0  0  0
   35.0799   63.1034   49.9597 H   0  0  0  0  0  0  0  0  0  0  0  0
   34.7261   59.8716   49.0987 H   0  0  0  0  0  0  0  0  0  0  0  0
   33.1681   59.8422   48.2719 H   0  0  0  0  0  0  0  0  0  0  0  0
   36.4468   61.3139   48.5302 H   0  0  0  0  0  0  0  0  0  0  0  0
   36.7309   60.4459   46.9835 H   0  0  0  0  0  0  0  0  0  0  0  0
   36.4912   62.2261   46.9835 H   0  0  0  0  0  0  0  0  0  0  0  0
   34.0861   59.2242   46.3619 H   0  0  0  0  0  0  0  0  0  0  0  0
   33.6216   60.7034   45.4548 H   0  0  0  0  0  0  0  0  0  0  0  0
   35.3303   60.1493   45.4548 H   0  0  0  0  0  0  0  0  0  0  0  0
   37.1510   62.8904   51.6526 H   0  0  0  0  0  0  0  0  0  0  0  0
   35.9535   63.8930   50.7026 H   0  0  0  0  0  0  0  0  0  0  0  0
   38.0216   65.0471   51.8089 H   0  0  0  0  0  0  0  0  0  0  0  0
   36.3833   65.8043   51.8970 H   0  0  0  0  0  0  0  0  0  0  0  0
  1  2  1  0
  2  3  1  0
  3  4  1  0
  4  5  2  0
  4  6  1  0
  6  7  1  0
  7  8  1  0
  8  9  1  0
  9 10  2  0
 10 11  1  0
 11 12  2  0
 12 13  1  0
 13 14  2  0
 14 15  1  0
 15 16  1  0
 16 17  2  0
 16 18  1  0
 18 19  1  0
 19 20  1  0
 20 21  1  0
 21 22  1  0
 22 23  1  0
 23 24  1  0
 24 25  1  0
 26 25  1  1
 26 27  1  0
 26 28  1  0
 28 29  1  0
 29 30  1  0
 29 31  1  0
 29 32  1  0
 32 33  1  0
 33 34  2  0
 21 35  1  0
 35 36  1  0
 15  7  2  0
 36 18  1  0
 14  9  1  0
 27 22  1  0
 33 26  1  0
  1 37  1  0
  1 38  1  0
  1 39  1  0
  2 40  1  0
  2 41  1  0
  3 42  1  0
  6 43  1  0
 10 44  1  0
 11 45  1  0
 12 46  1  0
 13 47  1  0
 19 48  1  0
 19 49  1  0
 20 50  1  0
 20 51  1  0
 21 52  1  0
 23 53  1  0
 23 54  1  0
 24 55  1  0
 24 56  1  0
 25 57  1  0
 25 58  1  0
 27 59  1  0
 27 60  1  0
 28 61  1  0
 28 62  1  0
 30 63  1  0
 30 64  1  0
 30 65  1  0
 31 66  1  0
 31 67  1  0
 31 68  1  0
 35 69  1  0
 35 70  1  0
 36 71  1  0
 36 72  1  0
M  END
>  <meeko>  (8) 
{"is_sidechain": [false], "free_energy": -8.339, "intermolecular_energy": -11.135, "internal_energy": -0.311}

$$$$
seed-1002
     RDKit          3D

 72 76  0  0  0  0  0  0  0  0999 V2000
   40.4370   64.1630   61.3660 C   0  0  0  0  0  0  0  0  0  0  0  0
   41.5570   64.6980   60.4920 C   0  0  0  0  0  0  0  0  0  0  0  0
   41.2220   64.6360   59.0850 N   0  0  0  0  0  0  0  0  0  0  0  0
   40.9650   65.7890   58.3600 C   0  0  0  0  0  0  0  0  0  0  0  0
   41.0630   66.9010   58.8590 O   0  0  0  0  0  0  0  0  0  0  0  0
   40.6080   65.4720   57.0660 N   0  0  0  0  0  0  0  0  0  0  0  0
   40.2800   66.3460   56.0400 C   0  0  0  0  0  0  0  0  0  0  0  0
   41.4000   67.4410   55.4060 S   0  0  0  0  0  0  0  0  0  0  0  0
   40.3180   67.9850   54.1910 C   0  0  0  0  0  0  0  0  0  0  0  0
   40.5890   68.9270   53.1800 C   0  0  0  0  0  0  0  0  0  0  0  0
   39.5930   69.2300   52.2490 C   0  0  0  0  0  0  0  0  0  0  0  0
   38.3570   68.6070   52.3180 C   0  0  0  0  0  0  0  0  0  0  0  0
   38.0910   67.6780   53.3290 C   0  0  0  0  0  0  0  0  0  0  0  0
   39.0730   67.3610   54.3050 C   0  0  0  0  0  0  0  0  0  0  0  0
   39.0360   66.4650   55.4440 C   0  0  0  0  0  0  0  0  0  0  0  0
   37.8860   65.6940   55.9170 C   0  0  0  0  0  0  0  0  0  0  0  0
   37.1520   66.1520   56.7920 O   0  0  0  0  0  0  0  0  0  0  0  0
   37.6140   64.4710   55.2940 N   0  0  0  0  0  0  0  0  0  0  0  0
   38.0530   64.1440   53.9370 C   0  0  0  0  0  0  0  0  0  0  0  0
   36.9980   63.3550   53.1480 C   0  0  0  0  0  0  0  0  0  0  0  0
   35.5810   63.8970   53.4330 C   0  0  0  0  0  0  0  0  0  0  0  0
   34.4980   63.2400   52.6490 N   0  0  0  0  0  0  0  0  0  0  0  0
   33.2030   63.9180   52.8450 C   0  0  0  0  0  0  0  0  0  0  0  0
   32.0550   63.0640   52.3060 C   0  0  0  0  0  0  0  0  0  0  0  0
   32.4410   62.1770   51.1240 C   0  0  0  0  0  0  0  0  0  0  0  0
   33.6100   62.7320   50.3030 C   0  0  1  0  0  0  0  0  0  0  0  0
   34.7930   63.1810   51.1970 C   0  0  0  0  0  0  0  0  0  0  0  0
   34.0280   61.7100   49.2370 C   0  0  0  0  0  0  0  0  0  0  0  0
   34.4220   62.5440   48.0280 C   0  0  0  0  0  0  0  0  0  0  0  0
   35.9070   62.9130   47.9980 C   0  0  0  0  0  0  0  0  0  0  0  0
   34.0370   61.8510   46.7210 C   0  0  0  0  0  0  0  0  0  0  0  0
   33.6460   63.7410   48.1490 O   0  0  0  0  0  0  0  0  0  0  0  0
   33.1760   63.8890   49.4230 C   0  0  0  0  0  0  0  0  0  0  0  0
   32.5160   64.8520   49.7790 O   0  0  0  0  0  0  0  0  0  0  0  0
   35.2850   63.7850   54.9550 C   0  0  0  0  0  0  0  0  0  0  0  0
   36.5390   63.6480   55.8140 C   0  0  0  0  0  0  0  0  0  0  0  0
   40.7053   64.2911   62.4251 H   0  0  0  0  0  0  0  0  0  0  0  0
   39.5100   64.7155   61.1531 H   0  0  0  0  0  0  0  0  0  0  0  0
   40.2842   63.0947   61.1531 H   0  0  0  0  0  0  0  0  0  0  0  0
   41.7514   65.7456   60.7652 H   0  0  0  0  0  0  0  0  0  0  0  0
   42.4465   64.0726   60.6579 H   0  0  0  0  0  0  0  0  0  0  0  0
   40.8050   63.7810   58.7490 H   0  0  0  0  0  0  0  0  0  0  0  0
   40.7820   64.5160   56.7760 H   0  0  0  0  0  0  0  0  0  0  0  0
   41.5719   69.4176   53.1243 H   0  0  0  0  0  0  0  0  0  0  0  0
   39.7906   69.9671   51.4568 H   0  0  0  0  0  0  0  0  0  0  0  0
   37.5819   68.8442   51.5744 H   0  0  0  0  0  0  0  0  0  0  0  0
   37.1079   67.1861   53.3689 H   0  0  0  0  0  0  0  0  0  0  0  0
   38.2663   65.0804   53.4007 H   0  0  0  0  0  0  0  0  0  0  0  0
   38.9485   63.5107   54.0205 H   0  0  0  0  0  0  0  0  0  0  0  0
   37.2094   63.4463   52.0724 H   0  0  0  0  0  0  0  0  0  0  0  0
   37.0411   62.3007   53.4588 H   0  0  0  0  0  0  0  0  0  0  0  0
   35.5803   64.9476   53.1070 H   0  0  0  0  0  0  0  0  0  0  0  0
   33.0474   64.0943   53.9196 H   0  0  0  0  0  0  0  0  0  0  0  0
   33.2188   64.8724   52.2983 H   0  0  0  0  0  0  0  0  0  0  0  0
   31.6933   62.4179   53.1195 H   0  0  0  0  0  0  0  0  0  0  0  0
   31.2846   63.7600   51.9427 H   0  0  0  0  0  0  0  0  0  0  0  0
   32.7247   61.1865   51.5093 H   0  0  0  0  0  0  0  0  0  0  0  0
   31.5687   62.1288   50.4556 H   0  0  0  0  0  0  0  0  0  0  0  0
   35.6216   62.4734   51.0462 H   0  0  0  0  0  0  0  0  0  0  0  0
   35.0340   64.2099   50.8916 H   0  0  0  0  0  0  0  0  0  0  0  0
   34.8811   61.1111   49.5886 H   0  0  0  0  0  0  0  0  0  0  0  0
   33.2203   61.0002   49.0048 H   0  0  0  0  0  0  0  0  0  0  0  0
   36.2825   63.0063   49.0277 H   0  0  0  0  0  0  0  0  0  0  0  0
   36.4695   62.1273   47.4724 H   0  0  0  0  0  0  0  0  0  0  0  0
   36.0363   63.8706   47.4724 H   0  0  0  0  0  0  0  0  0  0  0  0
   33.5140   60.9096   46.9453 H   0  0  0  0  0  0  0  0  0  0  0  0
   33.3748   62.5085   46.1386 H   0  0  0  0  0  0  0  0  0  0  0  0
   34.9451   61.6362   46.1386 H   0  0  0  0  0  0  0  0  0  0  0  0
   34.7441   64.6891   55.2713 H   0  0  0  0  0  0  0  0  0  0  0  0
   34.6927   62.8697   55.1014 H   0  0  0  0  0  0  0  0  0  0  0  0
   36.3079   63.9643   56.8419 H   0  0  0  0  0  0  0  0  0  0  0  0
   36.8622   62.5967   55.7995 H   0  0  0  0  0  0  0  0  0  0  0  0
  1  2  1  0
  2  3  1  0
  3  4  1  0
  4  5  2  0
  4  6  1  0
  6  7  1  0
  7  8  1  0
  8  9  1  0
  9 10  2  0
 10 11  1  0
 11 12  2  0
 12 13  1  0
 13 14  2  0
 14 15  1  0
 15 16  1  0
 16 17  2  0
 16 18  1  0
 18 19  1  0
 19 20  1  0
 20 21  1  0
 21 22  1  0
 22 23  1  0
 23 24  1  0
 24 25  1  0
 26 25  1  1
 26 27  1  0
 26 28  1  0
 28 29  1  0
 29 30  1  0
 29 31  1  0
 29 32  1  0
 32 33  1  0
 33 34  2  0
 21 35  1  0
 35 36  1  0
 15  7  2  0
 36 18  1  0
 14  9  1  0
 27 22  1  0
 33 26  1  0
  1 37  1  0
  1 38  1  0
  1 39  1  0
  2 40  1  0
  2 41  1  0
  3 42  1  0
  6 43  1  0
 10 44  1  0
 11 45  1  0
 12 46  1  0
 13 47  1  0
 19 48  1  0
 19 49  1  0
 20 50  1  0
 20 51  1  0
 21 52  1  0
 23 53  1  0
 23 54  1  0
 24 55  1  0
 24 56  1  0
 25 57  1  0
 25 58  1  0
 27 59  1  0
 27 60  1  0
 28 61  1  0
 28 62  1  0
 30 63  1  0
 30 64  1  0
 30 65  1  0
 31 66  1  0
 31 67  1  0
 31 68  1  0
 35 69  1  0
 35 70  1  0
 36 71  1  0
 36 72  1  0
M  END
>  <meeko>  (9) 
{"is_sidechain": [false], "free_energy": -8.335, "intermolecular_energy": -10.288, "internal_energy": -1.153}

$$$$
seed-1002
     RDKit          3D

 72 76  0  0  0  0  0  0  0  0999 V2000
   40.9050   62.2240   60.3150 C   0  0  0  0  0  0  0  0  0  0  0  0
   39.6900   61.5110   59.7500 C   0  0  0  0  0  0  0  0  0  0  0  0
   38.8390   62.4070   58.9940 N   0  0  0  0  0  0  0  0  0  0  0  0
   38.4230   62.0860   57.7120 C   0  0  0  0  0  0  0  0  0  0  0  0
   38.7090   61.0180   57.1890 O   0  0  0  0  0  0  0  0  0  0  0  0
   37.6800   63.1170   57.1770 N   0  0  0  0  0  0  0  0  0  0  0  0
   37.0890   63.1720   55.9230 C   0  0  0  0  0  0  0  0  0  0  0  0
   35.5720   62.4920   55.6190 S   0  0  0  0  0  0  0  0  0  0  0  0
   35.5290   63.0830   54.0090 C   0  0  0  0  0  0  0  0  0  0  0  0
   34.4730   62.9430   53.0860 C   0  0  0  0  0  0  0  0  0  0  0  0
   34.5970   63.5180   51.8200 C   0  0  0  0  0  0  0  0  0  0  0  0
   35.7420   64.2220   51.4790 C   0  0  0  0  0  0  0  0  0  0  0  0
   36.7890   64.3510   52.3960 C   0  0  0  0  0  0  0  0  0  0  0  0
   36.7070   63.7620   53.6850 C   0  0  0  0  0  0  0  0  0  0  0  0
   37.6490   63.7340   54.7880 C   0  0  0  0  0  0  0  0  0  0  0  0
   39.0070   64.2780   54.7950 C   0  0  0  0  0  0  0  0  0  0  0  0
   39.9510   63.5870   54.4140 O   0  0  0  0  0  0  0  0  0  0  0  0
   39.1770   65.6140   55.1730 N   0  0  0  0  0  0  0  0  0  0  0  0
   38.1170   66.6190   55.0790 C   0  0  0  0  0  0  0  0  0  0  0  0
   38.6370   67.9870   54.6160 C   0  0  0  0  0  0  0  0  0  0  0  0
   39.7000   67.8240   53.5080 C   0  0  0  0  0  0  0  0  0  0  0  0
   40.2060   69.1070   52.9440 N   0  0  0  0  0  0  0  0  0  0  0  0
   40.3380   69.0340   51.4770 C   0  0  0  0  0  0  0  0  0  0  0  0
   41.1480   70.2170   50.9450 C   0  0  0  0  0  0  0  0  0  0  0  0
   41.0120   71.4900   51.7790 C   0  0  0  0  0  0  0  0  0  0  0  0
   39.6850   71.5790   52.5400 C   0  0  1  0  0  0  0  0  0  0  0  0
   39.3510   70.2660   53.2920 C   0  0  0  0  0  0  0  0  0  0  0  0
   39.6980   72.8040   53.4650 C   0  0  0  0  0  0  0  0  0  0  0  0
   38.2720   73.3330   53.4350 C   0  0  0  0  0  0  0  0  0  0  0  0
   37.3790   72.7430   54.5270 C   0  0  0  0  0  0  0  0  0  0  0  0
   38.2400   74.8600   53.5120 C   0  0  0  0  0  0  0  0  0  0  0  0
   37.7690   72.9360   52.1540 O   0  0  0  0  0  0  0  0  0  0  0  0
   38.5350   71.9400   51.6190 C   0  0  0  0  0  0  0  0  0  0  0  0
   38.2830   71.4130   50.5470 O   0  0  0  0  0  0  0  0  0  0  0  0
   40.8820   66.9740   54.0530 C   0  0  0  0  0  0  0  0  0  0  0  0
   40.5230   66.1420   55.2800 C   0  0  0  0  0  0  0  0  0  0  0  0
   40.8656   62.2009   61.4140 H   0  0  0  0  0  0  0  0  0  0  0  0
   41.8196   61.7193   59.9702 H   0  0  0  0  0  0  0  0  0  0  0  0
   40.9104   63.2686   59.9702 H   0  0  0  0  0  0  0  0  0  0  0  0
   40.0294   60.7006   59.0882 H   0  0  0  0  0  0  0  0  0  0  0  0
   39.1044   61.1164   60.5934 H   0  0  0  0  0  0  0  0  0  0  0  0
   38.8780   63.3860   59.2310 H   0  0  0  0  0  0  0  0  0  0  0  0
   37.3730   63.8310   57.8270 H   0  0  0  0  0  0  0  0  0  0  0  0
   33.5634   62.3881   53.3596 H   0  0  0  0  0  0  0  0  0  0  0  0
   33.7820   63.4121   51.0889 H   0  0  0  0  0  0  0  0  0  0  0  0
   35.8267   64.6808   50.4828 H   0  0  0  0  0  0  0  0  0  0  0  0
   37.6893   64.9170   52.1148 H   0  0  0  0  0  0  0  0  0  0  0  0
   37.3619   66.2679   54.3602 H   0  0  0  0  0  0  0  0  0  0  0  0
   37.6917   66.7484   56.0852 H   0  0  0  0  0  0  0  0  0  0  0  0
   37.7963   68.5787   54.2247 H   0  0  0  0  0  0  0  0  0  0  0  0
   39.0982   68.4974   55.4743 H   0  0  0  0  0  0  0  0  0  0  0  0
   39.2005   67.3144   52.6709 H   0  0  0  0  0  0  0  0  0  0  0  0
   40.8477   68.0974   51.2070 H   0  0  0  0  0  0  0  0  0  0  0  0
   39.3331   69.0656   51.0306 H   0  0  0  0  0  0  0  0  0  0  0  0
   42.2093   69.9284   50.9253 H   0  0  0  0  0  0  0  0  0  0  0  0
   40.7528   70.4486   49.9449 H   0  0  0  0  0  0  0  0  0  0  0  0
   41.8350   71.5188   52.5083 H   0  0  0  0  0  0  0  0  0  0  0  0
   41.0447   72.3404   51.0820 H   0  0  0  0  0  0  0  0  0  0  0  0
   39.4558   70.4550   54.3706 H   0  0  0  0  0  0  0  0  0  0  0  0
   38.3284   69.9931   52.9922 H   0  0  0  0  0  0  0  0  0  0  0  0
   39.9816   72.5138   54.4874 H   0  0  0  0  0  0  0  0  0  0  0  0
   40.4271   73.5607   53.1395 H   0  0  0  0  0  0  0  0  0  0  0  0
   37.7828   73.0098   55.5148 H   0  0  0  0  0  0  0  0  0  0  0  0
   36.3608   73.1467   54.4259 H   0  0  0  0  0  0  0  0  0  0  0  0
   37.3510   71.6480   54.4259 H   0  0  0  0  0  0  0  0  0  0  0  0
   38.2334   75.1739   54.5662 H   0  0  0  0  0  0  0  0  0  0  0  0
   39.1297   75.2710   53.0126 H   0  0  0  0  0  0  0  0  0  0  0  0
   37.3338   75.2334   53.0126 H   0  0  0  0  0  0  0  0  0  0  0  0
   41.2161   66.2926   53.2567 H   0  0  0  0  0  0  0  0  0  0  0  0
   41.6697   67.6776   54.3604 H   0  0  0  0  0  0  0  0  0  0  0  0
   41.2318   65.3054   55.3675 H   0  0  0  0  0  0  0  0  0  0  0  0
   40.5772   66.7870   56.1694 H   0  0  0  0  0  0  0  0  0  0  0  0
  1  2  1  0
  2  3  1  0
  3  4  1  0
  4  5  2  0
  4  6  1  0
  6  7  1  0
  7  8  1  0
  8  9  1  0
  9 10  2  0
 10 11  1  0
 11 12  2  0
 12 13  1  0
 13 14  2  0
 14 15  1  0
 15 16  1  0
 16 17  2  0
 16 18  1  0
 18 19  1  0
 19 20  1  0
 20 21  1  0
 21 22  1  0
 22 23  1  0
 23 24  1  0
 24 25  1  0
 26 25  1  6
 26 27  1  0
 26 28  1  0
 28 29  1  0
 29 30  1  0
 29 31  1  0
 29 32  1  0
 32 33  1  0
 33 34  2  0
 21 35  1  0
 35 36  1  0
 15  7  2  0
 36 18  1  0
 14  9  1  0
 27 22  1  0
 33 26  1  0
  1 37  1  0
  1 38  1  0
  1 39  1  0
  2 40  1  0
  2 41  1  0
  3 42  1  0
  6 43  1  0
 10 44  1  0
 11 45  1  0
 12 46  1  0
 13 47  1  0
 19 48  1  0
 19 49  1  0
 20 50  1  0
 20 51  1  0
 21 52  1  0
 23 53  1  0
 23 54  1  0
 24 55  1  0
 24 56  1  0
 25 57  1  0
 25 58  1  0
 27 59  1  0
 27 60  1  0
 28 61  1  0
 28 62  1  0
 30 63  1  0
 30 64  1  0
 30 65  1  0
 31 66  1  0
 31 67  1  0
 31 68  1  0
 35 69  1  0
 35 70  1  0
 36 71  1  0
 36 72  1  0
M  END
>  <meeko>  (10) 
{"is_sidechain": [false], "free_energy": -8.119, "intermolecular_energy": -9.879, "internal_energy": -1.294}

$$$$
seed-1002
     RDKit          3D

 72 76  0  0  0  0  0  0  0  0999 V2000
   41.1420   61.8860   59.5600 C   0  0  0  0  0  0  0  0  0  0  0  0
   39.6630   61.5500   59.6260 C   0  0  0  0  0  0  0  0  0  0  0  0
   38.8620   62.4780   58.8540 N   0  0  0  0  0  0  0  0  0  0  0  0
   38.3990   62.1430   57.5920 C   0  0  0  0  0  0  0  0  0  0  0  0
   38.5980   61.0400   57.1030 O   0  0  0  0  0  0  0  0  0  0  0  0
   37.7190   63.2050   57.0340 N   0  0  0  0  0  0  0  0  0  0  0  0
   37.1080   63.2580   55.7900 C   0  0  0  0  0  0  0  0  0  0  0  0
   35.7000   62.3890   55.4460 S   0  0  0  0  0  0  0  0  0  0  0  0
   35.5500   63.0740   53.8810 C   0  0  0  0  0  0  0  0  0  0  0  0
   34.5110   62.8460   52.9560 C   0  0  0  0  0  0  0  0  0  0  0  0
   34.5330   63.5170   51.7320 C   0  0  0  0  0  0  0  0  0  0  0  0
   35.5590   64.4000   51.4340 C   0  0  0  0  0  0  0  0  0  0  0  0
   36.5910   64.6170   52.3530 C   0  0  0  0  0  0  0  0  0  0  0  0
   36.6130   63.9360   53.5990 C   0  0  0  0  0  0  0  0  0  0  0  0
   37.5650   63.9710   54.6930 C   0  0  0  0  0  0  0  0  0  0  0  0
   38.8300   64.7030   54.7320 C   0  0  0  0  0  0  0  0  0  0  0  0
   39.8660   64.1670   54.3390 O   0  0  0  0  0  0  0  0  0  0  0  0
   38.8050   66.0370   55.1520 N   0  0  0  0  0  0  0  0  0  0  0  0
   37.6120   66.8810   55.0800 C   0  0  0  0  0  0  0  0  0  0  0  0
   37.9330   68.3250   54.6660 C   0  0  0  0  0  0  0  0  0  0  0  0
   39.0150   68.3520   53.5640 C   0  0  0  0  0  0  0  0  0  0  0  0
   39.3340   69.7120   53.0460 N   0  0  0  0  0  0  0  0  0  0  0  0
   38.1110   70.4990   52.8070 C   0  0  0  0  0  0  0  0  0  0  0  0
   38.4200   71.7510   51.9860 C   0  0  0  0  0  0  0  0  0  0  0  0
   39.8250   72.3080   52.2080 C   0  0  0  0  0  0  0  0  0  0  0  0
   40.4020   71.9730   53.5870 C   0  0  1  0  0  0  0  0  0  0  0  0
   40.2280   70.4760   53.9470 C   0  0  0  0  0  0  0  0  0  0  0  0
   41.8630   72.4360   53.6670 C   0  0  0  0  0  0  0  0  0  0  0  0
   42.0440   72.9200   55.0970 C   0  0  0  0  0  0  0  0  0  0  0  0
   42.5260   71.8280   56.0550 C   0  0  0  0  0  0  0  0  0  0  0  0
   42.9880   74.1200   55.1660 C   0  0  0  0  0  0  0  0  0  0  0  0
   40.7390   73.3490   55.4980 O   0  0  0  0  0  0  0  0  0  0  0  0
   39.7810   72.8290   54.6760 C   0  0  0  0  0  0  0  0  0  0  0  0
   38.5880   73.0260   54.8390 O   0  0  0  0  0  0  0  0  0  0  0  0
   40.3040   67.6620   54.0940 C   0  0  0  0  0  0  0  0  0  0  0  0
   40.0610   66.7480   55.2910 C   0  0  0  0  0  0  0  0  0  0  0  0
   41.5432   61.9771   60.5802 H   0  0  0  0  0  0  0  0  0  0  0  0
   41.6762   61.0863   59.0260 H   0  0  0  0  0  0  0  0  0  0  0  0
   41.2783   62.8380   59.0260 H   0  0  0  0  0  0  0  0  0  0  0  0
   39.5112   60.5349   59.2303 H   0  0  0  0  0  0  0  0  0  0  0  0
   39.3450   61.6183   60.6768 H   0  0  0  0  0  0  0  0  0  0  0  0
   38.9740   63.4600   59.0550 H   0  0  0  0  0  0  0  0  0  0  0  0
   37.4750   63.9610   57.6640 H   0  0  0  0  0  0  0  0  0  0  0  0
   33.6943   62.1491   53.1953 H   0  0  0  0  0  0  0  0  0  0  0  0
   33.7310   63.3438   50.9994 H   0  0  0  0  0  0  0  0  0  0  0  0
   35.5617   64.9321   50.4713 H   0  0  0  0  0  0  0  0  0  0  0  0
   37.3964   65.3247   52.1072 H   0  0  0  0  0  0  0  0  0  0  0  0
   36.9191   66.4491   54.3429 H   0  0  0  0  0  0  0  0  0  0  0  0
   37.1667   66.9142   56.0853 H   0  0  0  0  0  0  0  0  0  0  0  0
   37.0183   68.8028   54.2851 H   0  0  0  0  0  0  0  0  0  0  0  0
   38.3111   68.8680   55.5448 H   0  0  0  0  0  0  0  0  0  0  0  0
   38.5991   67.8035   52.7060 H   0  0  0  0  0  0  0  0  0  0  0  0
   37.3852   69.8795   52.2598 H   0  0  0  0  0  0  0  0  0  0  0  0
   37.6968   70.8086   53.7779 H   0  0  0  0  0  0  0  0  0  0  0  0
   38.3112   71.5014   50.9202 H   0  0  0  0  0  0  0  0  0  0  0  0
   37.7139   72.5285   52.3130 H   0  0  0  0  0  0  0  0  0  0  0  0
   40.4916   71.8887   51.4400 H   0  0  0  0  0  0  0  0  0  0  0  0
   39.7536   73.4038   52.1436 H   0  0  0  0  0  0  0  0  0  0  0  0
   41.2206   70.0025   53.9237 H   0  0  0  0  0  0  0  0  0  0  0  0
   39.7544   70.4530   54.9395 H   0  0  0  0  0  0  0  0  0  0  0  0
   42.5457   71.6007   53.4521 H   0  0  0  0  0  0  0  0  0  0  0  0
   42.0880   73.2233   52.9325 H   0  0  0  0  0  0  0  0  0  0  0  0
   42.3793   72.1603   57.0933 H   0  0  0  0  0  0  0  0  0  0  0  0
   41.9509   70.9068   55.8801 H   0  0  0  0  0  0  0  0  0  0  0  0
   43.5942   71.6321   55.8801 H   0  0  0  0  0  0  0  0  0  0  0  0
   43.1855   74.3711   56.2186 H   0  0  0  0  0  0  0  0  0  0  0  0
   43.9348   73.8710   54.6645 H   0  0  0  0  0  0  0  0  0  0  0  0
   42.5230   74.9816   54.6645 H   0  0  0  0  0  0  0  0  0  0  0  0
   40.7363   67.0613   53.2802 H   0  0  0  0  0  0  0  0  0  0  0  0
   40.9814   68.4605   54.4309 H   0  0  0  0  0  0  0  0  0  0  0  0
   40.8819   66.0190   55.3601 H   0  0  0  0  0  0  0  0  0  0  0  0
   40.0173   67.3645   56.2010 H   0  0  0  0  0  0  0  0  0  0  0  0
  1  2  1  0
  2  3  1  0
  3  4  1  0
  4  5  2  0
  4  6  1  0
  6  7  1  0
  7  8  1  0
  8  9  1  0
  9 10  2  0
 10 11  1  0
 11 12  2  0
 12 13  1  0
 13 14  2  0
 14 15  1  0
 15 16  1  0
 16 17  2  0
 16 18  1  0
 18 19  1  0
 19 20  1  0
 20 21  1  0
 21 22  1  0
 22 23  1  0
 23 24  1  0
 24 25  1  0
 26 25  1  6
 26 27  1  0
 26 28  1  0
 28 29  1  0
 29 30  1  0
 29 31  1  0
 29 32  1  0
 32 33  1  0
 33 34  2  0
 21 35  1  0
 35 36  1  0
 15  7  2  0
 36 18  1  0
 14  9  1  0
 27 22  1  0
 33 26  1  0
  1 37  1  0
  1 38  1  0
  1 39  1  0
  2 40  1  0
  2 41  1  0
  3 42  1  0
  6 43  1  0
 10 44  1  0
 11 45  1  0
 12 46  1  0
 13 47  1  0
 19 48  1  0
 19 49  1  0
 20 50  1  0
 20 51  1  0
 21 52  1  0
 23 53  1  0
 23 54  1  0
 24 55  1  0
 24 56  1  0
 25 57  1  0
 25 58  1  0
 27 59  1  0
 27 60  1  0
 28 61  1  0
 28 62  1  0
 30 63  1  0
 30 64  1  0
 30 65  1  0
 31 66  1  0
 31 67  1  0
 31 68  1  0
 35 69  1  0
 35 70  1  0
 36 71  1  0
 36 72  1  0
M  END
>  <meeko>  (11) 
{"is_sidechain": [false], "free_energy": -7.873, "intermolecular_energy": -9.576, "internal_energy": -1.294}

$$$$
seed-1002
     RDKit          3D

 72 76  0  0  0  0  0  0  0  0999 V2000
   41.3440   66.0330   46.7630 C   0  0  0  0  0  0  0  0  0  0  0  0
   41.0670   67.3790   47.4070 C   0  0  0  0  0  0  0  0  0  0  0  0
   41.1930   67.3270   48.8490 N   0  0  0  0  0  0  0  0  0  0  0  0
   41.6270   68.4280   49.5690 C   0  0  0  0  0  0  0  0  0  0  0  0
   41.8670   69.4990   49.0290 O   0  0  0  0  0  0  0  0  0  0  0  0
   41.7270   68.1150   50.9080 N   0  0  0  0  0  0  0  0  0  0  0  0
   42.1230   68.9480   51.9450 C   0  0  0  0  0  0  0  0  0  0  0  0
   43.7510   69.1960   52.3220 S   0  0  0  0  0  0  0  0  0  0  0  0
   43.3900   70.3680   53.5210 C   0  0  0  0  0  0  0  0  0  0  0  0
   44.3160   71.1060   54.2850 C   0  0  0  0  0  0  0  0  0  0  0  0
   43.8420   72.0480   55.2010 C   0  0  0  0  0  0  0  0  0  0  0  0
   42.4790   72.2550   55.3520 C   0  0  0  0  0  0  0  0  0  0  0  0
   41.5660   71.5130   54.5970 C   0  0  0  0  0  0  0  0  0  0  0  0
   42.0110   70.5330   53.6700 C   0  0  0  0  0  0  0  0  0  0  0  0
   41.2770   69.6340   52.8000 C   0  0  0  0  0  0  0  0  0  0  0  0
   39.8240   69.4740   52.7290 C   0  0  0  0  0  0  0  0  0  0  0  0
   39.2160   69.7970   51.7090 O   0  0  0  0  0  0  0  0  0  0  0  0
   39.1750   68.8780   53.8150 N   0  0  0  0  0  0  0  0  0  0  0  0
   39.8430   67.9820   54.7600 C   0  0  0  0  0  0  0  0  0  0  0  0
   38.9560   66.8040   55.1880 C   0  0  0  0  0  0  0  0  0  0  0  0
   38.1470   66.2620   53.9890 C   0  0  0  0  0  0  0  0  0  0  0  0
   37.3140   65.0660   54.2950 N   0  0  0  0  0  0  0  0  0  0  0  0
   36.8420   65.0820   55.6920 C   0  0  0  0  0  0  0  0  0  0  0  0
   36.2690   63.7210   56.0890 C   0  0  0  0  0  0  0  0  0  0  0  0
   35.6390   62.9500   54.9300 C   0  0  0  0  0  0  0  0  0  0  0  0
   35.1120   63.8560   53.8120 C   0  0  1  0  0  0  0  0  0  0  0  0
   36.1440   64.9340   53.3950 C   0  0  0  0  0  0  0  0  0  0  0  0
   34.6400   63.0000   52.6290 C   0  0  0  0  0  0  0  0  0  0  0  0
   33.4230   63.7280   52.0790 C   0  0  0  0  0  0  0  0  0  0  0  0
   33.7600   64.7380   50.9810 C   0  0  0  0  0  0  0  0  0  0  0  0
   32.3660   62.7480   51.5700 C   0  0  0  0  0  0  0  0  0  0  0  0
   32.8840   64.4280   53.2060 O   0  0  0  0  0  0  0  0  0  0  0  0
   33.8100   64.5280   54.2040 C   0  0  0  0  0  0  0  0  0  0  0  0
   33.5940   65.1140   55.2540 O   0  0  0  0  0  0  0  0  0  0  0  0
   37.2600   67.4010   53.4110 C   0  0  0  0  0  0  0  0  0  0  0  0
   37.7270   68.7990   53.8040 C   0  0  0  0  0  0  0  0  0  0  0  0
   41.4996   65.2767   47.5465 H   0  0  0  0  0  0  0  0  0  0  0  0
   40.4869   65.7423   46.1379 H   0  0  0  0  0  0  0  0  0  0  0  0
   42.2463   66.1044   46.1379 H   0  0  0  0  0  0  0  0  0  0  0  0
   41.7841   68.1149   47.0142 H   0  0  0  0  0  0  0  0  0  0  0  0
   40.0322   67.6641   47.1665 H   0  0  0  0  0  0  0  0  0  0  0  0
   41.3430   66.4200   49.2640 H   0  0  0  0  0  0  0  0  0  0  0  0
   41.2900   67.2480   51.1990 H   0  0  0  0  0  0  0  0  0  0  0  0
   45.3968   70.9426   54.1618 H   0  0  0  0  0  0  0  0  0  0  0  0
   44.5538   72.6289   55.8060 H   0  0  0  0  0  0  0  0  0  0  0  0
   42.1150   73.0059   56.0686 H   0  0  0  0  0  0  0  0  0  0  0  0
   40.4877   71.6905   54.7225 H   0  0  0  0  0  0  0  0  0  0  0  0
   40.7518   67.5838   54.2851 H   0  0  0  0  0  0  0  0  0  0  0  0
   40.0779   68.5659   55.6621 H   0  0  0  0  0  0  0  0  0  0  0  0
   39.5921   66.0000   55.5868 H   0  0  0  0  0  0  0  0  0  0  0  0
   38.2529   67.1539   55.9582 H   0  0  0  0  0  0  0  0  0  0  0  0
   38.8841   65.9211   53.2470 H   0  0  0  0  0  0  0  0  0  0  0  0
   37.6857   65.3249   56.3546 H   0  0  0  0  0  0  0  0  0  0  0  0
   36.0493   65.8387   55.7869 H   0  0  0  0  0  0  0  0  0  0  0  0
   37.0834   63.1116   56.5077 H   0  0  0  0  0  0  0  0  0  0  0  0
   35.4668   63.9134   56.8167 H   0  0  0  0  0  0  0  0  0  0  0  0
   36.3984   62.2773   54.5049 H   0  0  0  0  0  0  0  0  0  0  0  0
   34.7772   62.4000   55.3360 H   0  0  0  0  0  0  0  0  0  0  0  0
   36.5138   64.6811   52.3903 H   0  0  0  0  0  0  0  0  0  0  0  0
   35.6147   65.8973   53.4375 H   0  0  0  0  0  0  0  0  0  0  0  0
   35.4272   62.9297   51.8639 H   0  0  0  0  0  0  0  0  0  0  0  0
   34.4036   61.9694   52.9323 H   0  0  0  0  0  0  0  0  0  0  0  0
   34.0764   65.6864   51.4397 H   0  0  0  0  0  0  0  0  0  0  0  0
   34.5749   64.3427   50.3568 H   0  0  0  0  0  0  0  0  0  0  0  0
   32.8710   64.9113   50.3568 H   0  0  0  0  0  0  0  0  0  0  0  0
   31.8592   62.2782   52.4258 H   0  0  0  0  0  0  0  0  0  0  0  0
   31.6284   63.2889   50.9590 H   0  0  0  0  0  0  0  0  0  0  0  0
   32.8497   61.9717   50.9590 H   0  0  0  0  0  0  0  0  0  0  0  0
   37.2704   67.3268   52.3136 H   0  0  0  0  0  0  0  0  0  0  0  0
   36.2517   67.2684   53.8302 H   0  0  0  0  0  0  0  0  0  0  0  0
   37.3323   69.5271   53.0801 H   0  0  0  0  0  0  0  0  0  0  0  0
   37.3557   69.0218   54.8152 H   0  0  0  0  0  0  0  0  0  0  0  0
  1  2  1  0
  2  3  1  0
  3  4  1  0
  4  5  2  0
  4  6  1  0
  6  7  1  0
  7  8  1  0
  8  9  1  0
  9 10  2  0
 10 11  1  0
 11 12  2  0
 12 13  1  0
 13 14  2  0
 14 15  1  0
 15 16  1  0
 16 17  2  0
 16 18  1  0
 18 19  1  0
 19 20  1  0
 20 21  1  0
 21 22  1  0
 22 23  1  0
 23 24  1  0
 24 25  1  0
 26 25  1  1
 26 27  1  0
 26 28  1  0
 28 29  1  0
 29 30  1  0
 29 31  1  0
 29 32  1  0
 32 33  1  0
 33 34  2  0
 21 35  1  0
 35 36  1  0
 15  7  2  0
 36 18  1  0
 14  9  1  0
 27 22  1  0
 33 26  1  0
  1 37  1  0
  1 38  1  0
  1 39  1  0
  2 40  1  0
  2 41  1  0
  3 42  1  0
  6 43  1  0
 10 44  1  0
 11 45  1  0
 12 46  1  0
 13 47  1  0
 19 48  1  0
 19 49  1  0
 20 50  1  0
 20 51  1  0
 21 52  1  0
 23 53  1  0
 23 54  1  0
 24 55  1  0
 24 56  1  0
 25 57  1  0
 25 58  1  0
 27 59  1  0
 27 60  1  0
 28 61  1  0
 28 62  1  0
 30 63  1  0
 30 64  1  0
 30 65  1  0
 31 66  1  0
 31 67  1  0
 31 68  1  0
 35 69  1  0
 35 70  1  0
 36 71  1  0
 36 72  1  0
M  END
>  <meeko>  (12) 
{"is_sidechain": [false], "free_energy": -7.718, "intermolecular_energy": -9.199, "internal_energy": -1.48}

$$$$
seed-1002
     RDKit          3D

 72 76  0  0  0  0  0  0  0  0999 V2000
   38.6930   71.4550   50.5830 C   0  0  0  0  0  0  0  0  0  0  0  0
   38.2630   70.0290   50.2930 C   0  0  0  0  0  0  0  0  0  0  0  0
   37.6870   69.3880   51.4570 N   0  0  0  0  0  0  0  0  0  0  0  0
   38.3990   68.4430   52.1780 C   0  0  0  0  0  0  0  0  0  0  0  0
   39.5530   68.1510   51.8980 O   0  0  0  0  0  0  0  0  0  0  0  0
   37.6220   67.9320   53.1960 N   0  0  0  0  0  0  0  0  0  0  0  0
   37.9770   66.9730   54.1330 C   0  0  0  0  0  0  0  0  0  0  0  0
   39.5200   66.9210   54.8190 S   0  0  0  0  0  0  0  0  0  0  0  0
   39.1040   65.6400   55.8820 C   0  0  0  0  0  0  0  0  0  0  0  0
   39.9290   65.0560   56.8630 C   0  0  0  0  0  0  0  0  0  0  0  0
   39.4130   64.0380   57.6670 C   0  0  0  0  0  0  0  0  0  0  0  0
   38.1030   63.6120   57.5040 C   0  0  0  0  0  0  0  0  0  0  0  0
   37.2910   64.1910   56.5230 C   0  0  0  0  0  0  0  0  0  0  0  0
   37.7890   65.2150   55.6740 C   0  0  0  0  0  0  0  0  0  0  0  0
   37.1660   65.9460   54.5880 C   0  0  0  0  0  0  0  0  0  0  0  0
   35.8260   65.7310   54.0410 C   0  0  0  0  0  0  0  0  0  0  0  0
   35.0410   66.6740   53.9400 O   0  0  0  0  0  0  0  0  0  0  0  0
   35.5050   64.4530   53.5740 N   0  0  0  0  0  0  0  0  0  0  0  0
   36.5070   63.4800   53.1370 C   0  0  0  0  0  0  0  0  0  0  0  0
   36.0580   62.6800   51.9050 C   0  0  0  0  0  0  0  0  0  0  0  0
   35.3180   63.5890   50.9000 C   0  0  0  0  0  0  0  0  0  0  0  0
   34.9120   62.9110   49.6370 N   0  0  0  0  0  0  0  0  0  0  0  0
   33.8030   63.6240   48.9760 C   0  0  0  0  0  0  0  0  0  0  0  0
   33.1860   62.7660   47.8720 C   0  0  0  0  0  0  0  0  0  0  0  0
   34.1720   61.8080   47.2040 C   0  0  0  0  0  0  0  0  0  0  0  0
   35.6230   62.2950   47.2570 C   0  0  1  0  0  0  0  0  0  0  0  0
   36.0310   62.7680   48.6760 C   0  0  0  0  0  0  0  0  0  0  0  0
   36.5570   61.2090   46.7050 C   0  0  0  0  0  0  0  0  0  0  0  0
   37.6490   61.9690   45.9670 C   0  0  0  0  0  0  0  0  0  0  0  0
   38.8560   62.3060   46.8440 C   0  0  0  0  0  0  0  0  0  0  0  0
   38.1120   61.2140   44.7210 C   0  0  0  0  0  0  0  0  0  0  0  0
   37.0200   63.1860   45.5500 O   0  0  0  0  0  0  0  0  0  0  0  0
   35.8770   63.4110   46.2610 C   0  0  0  0  0  0  0  0  0  0  0  0
   35.1850   64.4050   46.1080 O   0  0  0  0  0  0  0  0  0  0  0  0
   34.0770   64.2180   51.5950 C   0  0  0  0  0  0  0  0  0  0  0  0
   34.1520   64.1960   53.1180 C   0  0  0  0  0  0  0  0  0  0  0  0
   38.7397   71.6098   51.6711 H   0  0  0  0  0  0  0  0  0  0  0  0
   39.6854   71.6352   50.1441 H   0  0  0  0  0  0  0  0  0  0  0  0
   37.9656   72.1538   50.1441 H   0  0  0  0  0  0  0  0  0  0  0  0
   37.5142   70.0409   49.4873 H   0  0  0  0  0  0  0  0  0  0  0  0
   39.1561   69.4584   49.9983 H   0  0  0  0  0  0  0  0  0  0  0  0
   36.6810   69.3370   51.5020 H   0  0  0  0  0  0  0  0  0  0  0  0
   36.7680   68.4390   53.4050 H   0  0  0  0  0  0  0  0  0  0  0  0
   40.9664   65.3976   56.9939 H   0  0  0  0  0  0  0  0  0  0  0  0
   40.0487   63.5712   58.4339 H   0  0  0  0  0  0  0  0  0  0  0  0
   37.7013   62.8161   58.1484 H   0  0  0  0  0  0  0  0  0  0  0  0
   36.2521   63.8484   56.4075 H   0  0  0  0  0  0  0  0  0  0  0  0
   37.4345   64.0170   52.8891 H   0  0  0  0  0  0  0  0  0  0  0  0
   36.6581   62.7660   53.9600 H   0  0  0  0  0  0  0  0  0  0  0  0
   36.9421   62.2459   51.4152 H   0  0  0  0  0  0  0  0  0  0  0  0
   35.3720   61.8848   52.2321 H   0  0  0  0  0  0  0  0  0  0  0  0
   36.0358   64.3653   50.5964 H   0  0  0  0  0  0  0  0  0  0  0  0
   33.0307   63.8605   49.7227 H   0  0  0  0  0  0  0  0  0  0  0  0
   34.1967   64.5472   48.5258 H   0  0  0  0  0  0  0  0  0  0  0  0
   32.3703   62.1724   48.3105 H   0  0  0  0  0  0  0  0  0  0  0  0
   32.8352   63.4567   47.0911 H   0  0  0  0  0  0  0  0  0  0  0  0
   34.1119   60.8347   47.7131 H   0  0  0  0  0  0  0  0  0  0  0  0
   33.8906   61.7399   46.1428 H   0  0  0  0  0  0  0  0  0  0  0  0
   36.7423   62.0368   49.0876 H   0  0  0  0  0  0  0  0  0  0  0  0
   36.4590   63.7738   48.5524 H   0  0  0  0  0  0  0  0  0  0  0  0
   36.9860   60.6143   47.5249 H   0  0  0  0  0  0  0  0  0  0  0  0
   36.0279   60.5029   46.0481 H   0  0  0  0  0  0  0  0  0  0  0  0
   38.5726   62.2269   47.9039 H   0  0  0  0  0  0  0  0  0  0  0  0
   39.6732   61.6017   46.6294 H   0  0  0  0  0  0  0  0  0  0  0  0
   39.1902   63.3318   46.6294 H   0  0  0  0  0  0  0  0  0  0  0  0
   38.6650   60.3123   45.0230 H   0  0  0  0  0  0  0  0  0  0  0  0
   37.2365   60.9237   44.1217 H   0  0  0  0  0  0  0  0  0  0  0  0
   38.7677   61.8627   44.1217 H   0  0  0  0  0  0  0  0  0  0  0  0
   33.9877   65.2640   51.2666 H   0  0  0  0  0  0  0  0  0  0  0  0
   33.2051   63.6124   51.3068 H   0  0  0  0  0  0  0  0  0  0  0  0
   33.4827   64.9695   53.5226 H   0  0  0  0  0  0  0  0  0  0  0  0
   33.8459   63.1999   53.4703 H   0  0  0  0  0  0  0  0  0  0  0  0
  1  2  1  0
  2  3  1  0
  3  4  1  0
  4  5  2  0
  4  6  1  0
  6  7  1  0
  7  8  1  0
  8  9  1  0
  9 10  2  0
 10 11  1  0
 11 12  2  0
 12 13  1  0
 13 14  2  0
 14 15  1  0
 15 16  1  0
 16 17  2  0
 16 18  1  0
 18 19  1  0
 19 20  1  0
 20 21  1  0
 21 22  1  0
 22 23  1  0
 23 24  1  0
 24 25  1  0
 26 25  1  1
 26 27  1  0
 26 28  1  0
 28 29  1  0
 29 30  1  0
 29 31  1  0
 29 32  1  0
 32 33  1  0
 33 34  2  0
 21 35  1  0
 35 36  1  0
 15  7  2  0
 36 18  1  0
 14  9  1  0
 27 22  1  0
 33 26  1  0
  1 37  1  0
  1 38  1  0
  1 39  1  0
  2 40  1  0
  2 41  1  0
  3 42  1  0
  6 43  1  0
 10 44  1  0
 11 45  1  0
 12 46  1  0
 13 47  1  0
 19 48  1  0
 19 49  1  0
 20 50  1  0
 20 51  1  0
 21 52  1  0
 23 53  1  0
 23 54  1  0
 24 55  1  0
 24 56  1  0
 25 57  1  0
 25 58  1  0
 27 59  1  0
 27 60  1  0
 28 61  1  0
 28 62  1  0
 30 63  1  0
 30 64  1  0
 30 65  1  0
 31 66  1  0
 31 67  1  0
 31 68  1  0
 35 69  1  0
 35 70  1  0
 36 71  1  0
 36 72  1  0
M  END
>  <meeko>  (13) 
{"is_sidechain": [false], "free_energy": -7.647, "intermolecular_energy": -9.706, "internal_energy": -0.885}

$$$$
seed-1002
     RDKit          3D

 72 76  0  0  0  0  0  0  0  0999 V2000
   28.9640   60.7700   55.1300 C   0  0  0  0  0  0  0  0  0  0  0  0
   29.6760   60.4510   53.8280 C   0  0  0  0  0  0  0  0  0  0  0  0
   30.2140   61.6400   53.2000 N   0  0  0  0  0  0  0  0  0  0  0  0
   31.4910   62.0890   53.4930 C   0  0  0  0  0  0  0  0  0  0  0  0
   32.2340   61.4750   54.2470 O   0  0  0  0  0  0  0  0  0  0  0  0
   31.7520   63.2660   52.8250 N   0  0  0  0  0  0  0  0  0  0  0  0
   32.9170   64.0180   52.8570 C   0  0  0  0  0  0  0  0  0  0  0  0
   33.6250   64.5080   54.3110 S   0  0  0  0  0  0  0  0  0  0  0  0
   34.9810   65.2020   53.5220 C   0  0  0  0  0  0  0  0  0  0  0  0
   36.1000   65.8000   54.1360 C   0  0  0  0  0  0  0  0  0  0  0  0
   37.1330   66.2890   53.3350 C   0  0  0  0  0  0  0  0  0  0  0  0
   37.0610   66.1830   51.9550 C   0  0  0  0  0  0  0  0  0  0  0  0
   35.9450   65.5950   51.3510 C   0  0  0  0  0  0  0  0  0  0  0  0
   34.8650   65.1050   52.1330 C   0  0  0  0  0  0  0  0  0  0  0  0
   33.6110   64.4850   51.7530 C   0  0  0  0  0  0  0  0  0  0  0  0
   33.1110   64.2770   50.3940 C   0  0  0  0  0  0  0  0  0  0  0  0
   32.4180   65.1380   49.8520 O   0  0  0  0  0  0  0  0  0  0  0  0
   33.5080   63.1180   49.7180 N   0  0  0  0  0  0  0  0  0  0  0  0
   34.7260   62.3740   50.0420 C   0  0  0  0  0  0  0  0  0  0  0  0
   35.4460   61.8450   48.7940 C   0  0  0  0  0  0  0  0  0  0  0  0
   35.4120   62.8890   47.6560 C   0  0  0  0  0  0  0  0  0  0  0  0
   36.1550   62.4900   46.4280 N   0  0  0  0  0  0  0  0  0  0  0  0
   37.5400   62.9960   46.4490 C   0  0  0  0  0  0  0  0  0  0  0  0
   38.1880   62.8640   45.0710 C   0  0  0  0  0  0  0  0  0  0  0  0
   37.6680   61.6860   44.2490 C   0  0  0  0  0  0  0  0  0  0  0  0
   37.1390   60.5320   45.1070 C   0  0  1  0  0  0  0  0  0  0  0  0
   36.1830   61.0220   46.2240 C   0  0  0  0  0  0  0  0  0  0  0  0
   36.5000   59.4660   44.2070 C   0  0  0  0  0  0  0  0  0  0  0  0
   36.8430   58.1390   44.8670 C   0  0  0  0  0  0  0  0  0  0  0  0
   35.7900   57.6650   45.8700 C   0  0  0  0  0  0  0  0  0  0  0  0
   37.0940   57.0450   43.8280 C   0  0  0  0  0  0  0  0  0  0  0  0
   38.0700   58.3900   45.5620 O   0  0  0  0  0  0  0  0  0  0  0  0
   38.2700   59.7310   45.7250 C   0  0  0  0  0  0  0  0  0  0  0  0
   39.2310   60.1910   46.3200 O   0  0  0  0  0  0  0  0  0  0  0  0
   33.9330   63.2170   47.3060 C   0  0  0  0  0  0  0  0  0  0  0  0
   32.9460   62.8470   48.4090 C   0  0  0  0  0  0  0  0  0  0  0  0
   29.6038   60.4833   55.9776 H   0  0  0  0  0  0  0  0  0  0  0  0
   28.7533   61.8486   55.1780 H   0  0  0  0  0  0  0  0  0  0  0  0
   28.0189   60.2093   55.1780 H   0  0  0  0  0  0  0  0  0  0  0  0
   30.5015   59.7543   54.0358 H   0  0  0  0  0  0  0  0  0  0  0  0
   28.9432   60.0045   53.1398 H   0  0  0  0  0  0  0  0  0  0  0  0
   29.5510   62.3280   52.8740 H   0  0  0  0  0  0  0  0  0  0  0  0
   31.1020   63.5150   52.0870 H   0  0  0  0  0  0  0  0  0  0  0  0
   36.1583   65.8802   55.2315 H   0  0  0  0  0  0  0  0  0  0  0  0
   38.0098   66.7615   53.8019 H   0  0  0  0  0  0  0  0  0  0  0  0
   37.8846   66.5627   51.3325 H   0  0  0  0  0  0  0  0  0  0  0  0
   35.9029   65.5108   50.2550 H   0  0  0  0  0  0  0  0  0  0  0  0
   35.4107   63.0400   50.5876 H   0  0  0  0  0  0  0  0  0  0  0  0
   34.4332   61.5054   50.6501 H   0  0  0  0  0  0  0  0  0  0  0  0
   36.4929   61.6233   49.0486 H   0  0  0  0  0  0  0  0  0  0  0  0
   34.9336   60.9339   48.4515 H   0  0  0  0  0  0  0  0  0  0  0  0
   35.9349   63.7791   48.0359 H   0  0  0  0  0  0  0  0  0  0  0  0
   37.5322   64.0558   46.7436 H   0  0  0  0  0  0  0  0  0  0  0  0
   38.1211   62.4020   47.1698 H   0  0  0  0  0  0  0  0  0  0  0  0
   37.9959   63.7896   44.5085 H   0  0  0  0  0  0  0  0  0  0  0  0
   39.2601   62.6851   45.2398 H   0  0  0  0  0  0  0  0  0  0  0  0
   36.8517   62.0439   43.6044 H   0  0  0  0  0  0  0  0  0  0  0  0
   38.5164   61.2960   43.6675 H   0  0  0  0  0  0  0  0  0  0  0  0
   35.1645   60.6938   45.9691 H   0  0  0  0  0  0  0  0  0  0  0  0
   36.5606   60.5893   47.1622 H   0  0  0  0  0  0  0  0  0  0  0  0
   35.4097   59.6036   44.1584 H   0  0  0  0  0  0  0  0  0  0  0  0
   36.8701   59.5217   43.1726 H   0  0  0  0  0  0  0  0  0  0  0  0
   36.1577   57.8305   46.8934 H   0  0  0  0  0  0  0  0  0  0  0  0
   34.8588   58.2308   45.7190 H   0  0  0  0  0  0  0  0  0  0  0  0
   35.5962   56.5928   45.7190 H   0  0  0  0  0  0  0  0  0  0  0  0
   37.3117   56.0961   44.3400 H   0  0  0  0  0  0  0  0  0  0  0  0
   36.2000   56.9252   43.1984 H   0  0  0  0  0  0  0  0  0  0  0  0
   37.9508   57.3269   43.1984 H   0  0  0  0  0  0  0  0  0  0  0  0
   33.8524   64.2974   47.1157 H   0  0  0  0  0  0  0  0  0  0  0  0
   33.6700   62.6151   46.4236 H   0  0  0  0  0  0  0  0  0  0  0  0
   32.0265   63.4374   48.2825 H   0  0  0  0  0  0  0  0  0  0  0  0
   32.7250   61.7718   48.3369 H   0  0  0  0  0  0  0  0  0  0  0  0
  1  2  1  0
  2  3  1  0
  3  4  1  0
  4  5  2  0
  4  6  1  0
  6  7  1  0
  7  8  1  0
  8  9  1  0
  9 10  2  0
 10 11  1  0
 11 12  2  0
 12 13  1  0
 13 14  2  0
 14 15  1  0
 15 16  1  0
 16 17  2  0
 16 18  1  0
 18 19  1  0
 19 20  1  0
 20 21  1  0
 21 22  1  0
 22 23  1  0
 23 24  1  0
 24 25  1  0
 26 25  1  6
 26 27  1  0
 26 28  1  0
 28 29  1  0
 29 30  1  0
 29 31  1  0
 29 32  1  0
 32 33  1  0
 33 34  2  0
 21 35  1  0
 35 36  1  0
 15  7  2  0
 36 18  1  0
 14  9  1  0
 27 22  1  0
 33 26  1  0
  1 37  1  0
  1 38  1  0
  1 39  1  0
  2 40  1  0
  2 41  1  0
  3 42  1  0
  6 43  1  0
 10 44  1  0
 11 45  1  0
 12 46  1  0
 13 47  1  0
 19 48  1  0
 19 49  1  0
 20 50  1  0
 20 51  1  0
 21 52  1  0
 23 53  1  0
 23 54  1  0
 24 55  1  0
 24 56  1  0
 25 57  1  0
 25 58  1  0
 27 59  1  0
 27 60  1  0
 28 61  1  0
 28 62  1  0
 30 63  1  0
 30 64  1  0
 30 65  1  0
 31 66  1  0
 31 67  1  0
 31 68  1  0
 35 69  1  0
 35 70  1  0
 36 71  1  0
 36 72  1  0
M  END
>  <meeko>  (14) 
{"is_sidechain": [false], "free_energy": -7.585, "intermolecular_energy": -9.422, "internal_energy": -1.092}

$$$$
seed-1002
     RDKit          3D

 72 76  0  0  0  0  0  0  0  0999 V2000
   32.7890   63.2810   48.7800 C   0  0  0  0  0  0  0  0  0  0  0  0
   33.0510   62.3270   49.9320 C   0  0  0  0  0  0  0  0  0  0  0  0
   34.2710   62.6540   50.6400 N   0  0  0  0  0  0  0  0  0  0  0  0
   34.2410   63.0660   51.9630 C   0  0  0  0  0  0  0  0  0  0  0  0
   33.1990   63.1180   52.6000 O   0  0  0  0  0  0  0  0  0  0  0  0
   35.5120   63.3800   52.3950 N   0  0  0  0  0  0  0  0  0  0  0  0
   35.8920   63.8260   53.6530 C   0  0  0  0  0  0  0  0  0  0  0  0
   35.9120   62.8010   54.9970 S   0  0  0  0  0  0  0  0  0  0  0  0
   36.5820   64.0050   56.0190 C   0  0  0  0  0  0  0  0  0  0  0  0
   36.9500   63.8540   57.3710 C   0  0  0  0  0  0  0  0  0  0  0  0
   37.5130   64.9390   58.0460 C   0  0  0  0  0  0  0  0  0  0  0  0
   37.7120   66.1450   57.3920 C   0  0  0  0  0  0  0  0  0  0  0  0
   37.3380   66.2910   56.0530 C   0  0  0  0  0  0  0  0  0  0  0  0
   36.7430   65.2150   55.3400 C   0  0  0  0  0  0  0  0  0  0  0  0
   36.2560   65.1220   53.9770 C   0  0  0  0  0  0  0  0  0  0  0  0
   36.1980   66.2010   52.9910 C   0  0  0  0  0  0  0  0  0  0  0  0
   35.1100   66.6330   52.6110 O   0  0  0  0  0  0  0  0  0  0  0  0
   37.4040   66.7640   52.5610 N   0  0  0  0  0  0  0  0  0  0  0  0
   38.6380   66.7200   53.3460 C   0  0  0  0  0  0  0  0  0  0  0  0
   39.4430   68.0250   53.2580 C   0  0  0  0  0  0  0  0  0  0  0  0
   38.5050   69.2510   53.2890 C   0  0  0  0  0  0  0  0  0  0  0  0
   39.2060   70.5660   53.2860 N   0  0  0  0  0  0  0  0  0  0  0  0
   38.2910   71.6640   53.6460 C   0  0  0  0  0  0  0  0  0  0  0  0
   38.9200   73.0220   53.3320 C   0  0  0  0  0  0  0  0  0  0  0  0
   40.4440   73.0410   53.4430 C   0  0  0  0  0  0  0  0  0  0  0  0
   40.9960   71.9990   54.4210 C   0  0  1  0  0  0  0  0  0  0  0  0
   40.3750   70.5970   54.1960 C   0  0  0  0  0  0  0  0  0  0  0  0
   42.5290   71.9840   54.3540 C   0  0  0  0  0  0  0  0  0  0  0  0
   42.9820   71.7260   55.7830 C   0  0  0  0  0  0  0  0  0  0  0  0
   43.1620   70.2430   56.1090 C   0  0  0  0  0  0  0  0  0  0  0  0
   44.2690   72.4850   56.1070 C   0  0  0  0  0  0  0  0  0  0  0  0
   41.9290   72.2580   56.5940 O   0  0  0  0  0  0  0  0  0  0  0  0
   40.7860   72.4190   55.8630 C   0  0  0  0  0  0  0  0  0  0  0  0
   39.7420   72.8260   56.3460 O   0  0  0  0  0  0  0  0  0  0  0  0
   37.5120   69.1680   52.0950 C   0  0  0  0  0  0  0  0  0  0  0  0
   37.3720   67.7660   51.5130 C   0  0  0  0  0  0  0  0  0  0  0  0
   32.5174   64.2700   49.1775 H   0  0  0  0  0  0  0  0  0  0  0  0
   33.6960   63.3699   48.1640 H   0  0  0  0  0  0  0  0  0  0  0  0
   31.9638   62.8942   48.1640 H   0  0  0  0  0  0  0  0  0  0  0  0
   32.2071   62.3795   50.6356 H   0  0  0  0  0  0  0  0  0  0  0  0
   33.1601   61.3143   49.5166 H   0  0  0  0  0  0  0  0  0  0  0  0
   35.0580   62.9530   50.0850 H   0  0  0  0  0  0  0  0  0  0  0  0
   36.2750   63.0800   51.7990 H   0  0  0  0  0  0  0  0  0  0  0  0
   36.7959   62.8950   57.8872 H   0  0  0  0  0  0  0  0  0  0  0  0
   37.8003   64.8362   59.1028 H   0  0  0  0  0  0  0  0  0  0  0  0
   38.1662   66.9907   57.9290 H   0  0  0  0  0  0  0  0  0  0  0  0
   37.5065   67.2516   55.5443 H   0  0  0  0  0  0  0  0  0  0  0  0
   38.3788   66.5367   54.3992 H   0  0  0  0  0  0  0  0  0  0  0  0
   39.2646   65.9146   52.9353 H   0  0  0  0  0  0  0  0  0  0  0  0
   40.1360   68.0795   54.1106 H   0  0  0  0  0  0  0  0  0  0  0  0
   40.0009   68.0318   52.3100 H   0  0  0  0  0  0  0  0  0  0  0  0
   37.9706   69.2084   54.2495 H   0  0  0  0  0  0  0  0  0  0  0  0
   37.3579   71.5580   53.0732 H   0  0  0  0  0  0  0  0  0  0  0  0
   38.0864   71.6120   54.7256 H   0  0  0  0  0  0  0  0  0  0  0  0
   38.6444   73.3017   52.3045 H   0  0  0  0  0  0  0  0  0  0  0  0
   38.5372   73.7311   54.0808 H   0  0  0  0  0  0  0  0  0  0  0  0
   40.8686   72.8442   52.4475 H   0  0  0  0  0  0  0  0  0  0  0  0
   40.7291   74.0311   53.8284 H   0  0  0  0  0  0  0  0  0  0  0  0
   41.1528   69.9435   53.7740 H   0  0  0  0  0  0  0  0  0  0  0  0
   40.0079   70.2634   55.1778 H   0  0  0  0  0  0  0  0  0  0  0  0
   42.8792   71.1828   53.6866 H   0  0  0  0  0  0  0  0  0  0  0  0
   42.9348   72.9254   53.9551 H   0  0  0  0  0  0  0  0  0  0  0  0
   43.1785   70.1069   57.2004 H   0  0  0  0  0  0  0  0  0  0  0  0
   42.3269   69.6694   55.6806 H   0  0  0  0  0  0  0  0  0  0  0  0
   44.1101   69.8858   55.6806 H   0  0  0  0  0  0  0  0  0  0  0  0
   44.3883   72.5554   57.1982 H   0  0  0  0  0  0  0  0  0  0  0  0
   45.1286   71.9492   55.6779 H   0  0  0  0  0  0  0  0  0  0  0  0
   44.2161   73.4965   55.6779 H   0  0  0  0  0  0  0  0  0  0  0  0
   36.5226   69.5007   52.4420 H   0  0  0  0  0  0  0  0  0  0  0  0
   37.9135   69.8096   51.2968 H   0  0  0  0  0  0  0  0  0  0  0  0
   36.4154   67.6935   50.9748 H   0  0  0  0  0  0  0  0  0  0  0  0
   38.2134   67.5846   50.8281 H   0  0  0  0  0  0  0  0  0  0  0  0
  1  2  1  0
  2  3  1  0
  3  4  1  0
  4  5  2  0
  4  6  1  0
  6  7  1  0
  7  8  1  0
  8  9  1  0
  9 10  2  0
 10 11  1  0
 11 12  2  0
 12 13  1  0
 13 14  2  0
 14 15  1  0
 15 16  1  0
 16 17  2  0
 16 18  1  0
 18 19  1  0
 19 20  1  0
 20 21  1  0
 21 22  1  0
 22 23  1  0
 23 24  1  0
 24 25  1  0
 26 25  1  6
 26 27  1  0
 26 28  1  0
 28 29  1  0
 29 30  1  0
 29 31  1  0
 29 32  1  0
 32 33  1  0
 33 34  2  0
 21 35  1  0
 35 36  1  0
 15  7  2  0
 36 18  1  0
 14  9  1  0
 27 22  1  0
 33 26  1  0
  1 37  1  0
  1 38  1  0
  1 39  1  0
  2 40  1  0
  2 41  1  0
  3 42  1  0
  6 43  1  0
 10 44  1  0
 11 45  1  0
 12 46  1  0
 13 47  1  0
 19 48  1  0
 19 49  1  0
 20 50  1  0
 20 51  1  0
 21 52  1  0
 23 53  1  0
 23 54  1  0
 24 55  1  0
 24 56  1  0
 25 57  1  0
 25 58  1  0
 27 59  1  0
 27 60  1  0
 28 61  1  0
 28 62  1  0
 30 63  1  0
 30 64  1  0
 30 65  1  0
 31 66  1  0
 31 67  1  0
 31 68  1  0
 35 69  1  0
 35 70  1  0
 36 71  1  0
 36 72  1  0
M  END
>  <meeko>  (15) 
{"is_sidechain": [false], "free_energy": -7.353, "intermolecular_energy": -9.546, "internal_energy": -0.684}

$$$$
seed-1002
     RDKit          3D

 72 76  0  0  0  0  0  0  0  0999 V2000
   38.9920   67.1490   47.5430 C   0  0  0  0  0  0  0  0  0  0  0  0
   39.0080   68.6080   47.1220 C   0  0  0  0  0  0  0  0  0  0  0  0
   39.6630   69.4470   48.1040 N   0  0  0  0  0  0  0  0  0  0  0  0
   38.9310   70.1320   49.0610 C   0  0  0  0  0  0  0  0  0  0  0  0
   37.7170   70.0140   49.1520 O   0  0  0  0  0  0  0  0  0  0  0  0
   39.7640   70.9100   49.8360 N   0  0  0  0  0  0  0  0  0  0  0  0
   39.4110   71.7330   50.8950 C   0  0  0  0  0  0  0  0  0  0  0  0
   38.7800   73.2820   50.6520 S   0  0  0  0  0  0  0  0  0  0  0  0
   38.5050   73.5320   52.3270 C   0  0  0  0  0  0  0  0  0  0  0  0
   37.9090   74.6600   52.9240 C   0  0  0  0  0  0  0  0  0  0  0  0
   37.7340   74.6820   54.3090 C   0  0  0  0  0  0  0  0  0  0  0  0
   38.1380   73.6050   55.0840 C   0  0  0  0  0  0  0  0  0  0  0  0
   38.7350   72.4920   54.4850 C   0  0  0  0  0  0  0  0  0  0  0  0
   38.9470   72.4430   53.0820 C   0  0  0  0  0  0  0  0  0  0  0  0
   39.5540   71.4310   52.2390 C   0  0  0  0  0  0  0  0  0  0  0  0
   40.1880   70.1880   52.6790 C   0  0  0  0  0  0  0  0  0  0  0  0
   41.3450   70.2000   53.1000 O   0  0  0  0  0  0  0  0  0  0  0  0
   39.4180   69.0210   52.6750 N   0  0  0  0  0  0  0  0  0  0  0  0
   37.9560   69.0200   52.7470 C   0  0  0  0  0  0  0  0  0  0  0  0
   37.4080   67.8860   53.6260 C   0  0  0  0  0  0  0  0  0  0  0  0
   38.2830   67.6940   54.8840 C   0  0  0  0  0  0  0  0  0  0  0  0
   37.7800   66.6630   55.8340 N   0  0  0  0  0  0  0  0  0  0  0  0
   37.0080   65.6180   55.1370 C   0  0  0  0  0  0  0  0  0  0  0  0
   36.2360   64.7550   56.1350 C   0  0  0  0  0  0  0  0  0  0  0  0
   36.9150   64.6210   57.4970 C   0  0  0  0  0  0  0  0  0  0  0  0
   38.4380   64.7790   57.4360 C   0  0  1  0  0  0  0  0  0  0  0  0
   38.8650   66.0200   56.6120 C   0  0  0  0  0  0  0  0  0  0  0  0
   39.0170   64.7840   58.8570 C   0  0  0  0  0  0  0  0  0  0  0  0
   40.3470   64.0540   58.7410 C   0  0  0  0  0  0  0  0  0  0  0  0
   41.5290   64.9800   58.4500 C   0  0  0  0  0  0  0  0  0  0  0  0
   40.6390   63.2220   59.9900 C   0  0  0  0  0  0  0  0  0  0  0  0
   40.1700   63.1610   57.6360 O   0  0  0  0  0  0  0  0  0  0  0  0
   39.1060   63.5410   56.8690 C   0  0  0  0  0  0  0  0  0  0  0  0
   38.7790   62.9530   55.8500 O   0  0  0  0  0  0  0  0  0  0  0  0
   39.7380   67.3610   54.4500 C   0  0  0  0  0  0  0  0  0  0  0  0
   40.0560   67.7630   53.0130 C   0  0  0  0  0  0  0  0  0  0  0  0
   38.9913   67.0842   48.6411 H   0  0  0  0  0  0  0  0  0  0  0  0
   38.0885   66.6628   47.1464 H   0  0  0  0  0  0  0  0  0  0  0  0
   39.8847   66.6431   47.1464 H   0  0  0  0  0  0  0  0  0  0  0  0
   39.5436   68.6961   46.1653 H   0  0  0  0  0  0  0  0  0  0  0  0
   37.9657   68.9462   47.0260 H   0  0  0  0  0  0  0  0  0  0  0  0
   40.5620   69.8310   47.8550 H   0  0  0  0  0  0  0  0  0  0  0  0
   40.7570   70.7220   49.7520 H   0  0  0  0  0  0  0  0  0  0  0  0
   37.5859   75.5118   52.3075 H   0  0  0  0  0  0  0  0  0  0  0  0
   37.2732   75.5583   54.7882 H   0  0  0  0  0  0  0  0  0  0  0  0
   37.9881   73.6268   56.1735 H   0  0  0  0  0  0  0  0  0  0  0  0
   39.0451   71.6415   55.1099 H   0  0  0  0  0  0  0  0  0  0  0  0
   37.6233   69.9816   53.1649 H   0  0  0  0  0  0  0  0  0  0  0  0
   37.5727   68.8658   51.7276 H   0  0  0  0  0  0  0  0  0  0  0  0
   36.3817   68.1334   53.9351 H   0  0  0  0  0  0  0  0  0  0  0  0
   37.4187   66.9527   53.0439 H   0  0  0  0  0  0  0  0  0  0  0  0
   38.2445   68.6437   55.4377 H   0  0  0  0  0  0  0  0  0  0  0  0
   36.2964   66.0953   54.4472 H   0  0  0  0  0  0  0  0  0  0  0  0
   37.7071   64.9748   54.5824 H   0  0  0  0  0  0  0  0  0  0  0  0
   35.2437   65.2049   56.2861 H   0  0  0  0  0  0  0  0  0  0  0  0
   36.1820   63.7437   55.7057 H   0  0  0  0  0  0  0  0  0  0  0  0
   36.5107   65.3951   58.1658 H   0  0  0  0  0  0  0  0  0  0  0  0
   36.7084   63.6049   57.8642 H   0  0  0  0  0  0  0  0  0  0  0  0
   39.2735   66.7671   57.3084 H   0  0  0  0  0  0  0  0  0  0  0  0
   39.5981   65.6603   55.8749 H   0  0  0  0  0  0  0  0  0  0  0  0
   39.1708   65.8149   59.2085 H   0  0  0  0  0  0  0  0  0  0  0  0
   38.3425   64.3027   59.5805 H   0  0  0  0  0  0  0  0  0  0  0  0
   41.9677   65.3237   59.3984 H   0  0  0  0  0  0  0  0  0  0  0  0
   42.2886   64.4341   57.8712 H   0  0  0  0  0  0  0  0  0  0  0  0
   41.1808   65.8482   57.8712 H   0  0  0  0  0  0  0  0  0  0  0  0
   40.4285   63.8219   60.8877 H   0  0  0  0  0  0  0  0  0  0  0  0
   40.0018   62.3253   59.9905 H   0  0  0  0  0  0  0  0  0  0  0  0
   41.6968   62.9202   59.9905 H   0  0  0  0  0  0  0  0  0  0  0  0
   40.4304   67.8912   55.1204 H   0  0  0  0  0  0  0  0  0  0  0  0
   39.8497   66.2684   54.5106 H   0  0  0  0  0  0  0  0  0  0  0  0
   41.1451   67.8699   52.9014 H   0  0  0  0  0  0  0  0  0  0  0  0
   39.6757   66.9829   52.3371 H   0  0  0  0  0  0  0  0  0  0  0  0
  1  2  1  0
  2  3  1  0
  3  4  1  0
  4  5  2  0
  4  6  1  0
  6  7  1  0
  7  8  1  0
  8  9  1  0
  9 10  2  0
 10 11  1  0
 11 12  2  0
 12 13  1  0
 13 14  2  0
 14 15  1  0
 15 16  1  0
 16 17  2  0
 16 18  1  0
 18 19  1  0
 19 20  1  0
 20 21  1  0
 21 22  1  0
 22 23  1  0
 23 24  1  0
 24 25  1  0
 26 25  1  1
 26 27  1  0
 26 28  1  0
 28 29  1  0
 29 30  1  0
 29 31  1  0
 29 32  1  0
 32 33  1  0
 33 34  2  0
 21 35  1  0
 35 36  1  0
 15  7  2  0
 36 18  1  0
 14  9  1  0
 27 22  1  0
 33 26  1  0
  1 37  1  0
  1 38  1  0
  1 39  1  0
  2 40  1  0
  2 41  1  0
  3 42  1  0
  6 43  1  0
 10 44  1  0
 11 45  1  0
 12 46  1  0
 13 47  1  0
 19 48  1  0
 19 49  1  0
 20 50  1  0
 20 51  1  0
 21 52  1  0
 23 53  1  0
 23 54  1  0
 24 55  1  0
 24 56  1  0
 25 57  1  0
 25 58  1  0
 27 59  1  0
 27 60  1  0
 28 61  1  0
 28 62  1  0
 30 63  1  0
 30 64  1  0
 30 65  1  0
 31 66  1  0
 31 67  1  0
 31 68  1  0
 35 69  1  0
 35 70  1  0
 36 71  1  0
 36 72  1  0
M  END
>  <meeko>  (16) 
{"is_sidechain": [false], "free_energy": -7.348, "intermolecular_energy": -8.779, "internal_energy": -1.443}

$$$$
seed-1002
     RDKit          3D

 72 76  0  0  0  0  0  0  0  0999 V2000
   40.6770   64.7960   60.4180 C   0  0  0  0  0  0  0  0  0  0  0  0
   39.8320   63.6490   59.8970 C   0  0  0  0  0  0  0  0  0  0  0  0
   38.7750   64.1090   59.0190 N   0  0  0  0  0  0  0  0  0  0  0  0
   38.5840   63.5390   57.7710 C   0  0  0  0  0  0  0  0  0  0  0  0
   39.2560   62.5940   57.3820 O   0  0  0  0  0  0  0  0  0  0  0  0
   37.5670   64.1850   57.1000 N   0  0  0  0  0  0  0  0  0  0  0  0
   37.0790   63.9060   55.8320 C   0  0  0  0  0  0  0  0  0  0  0  0
   35.8900   62.7340   55.5690 S   0  0  0  0  0  0  0  0  0  0  0  0
   35.7700   63.1010   53.8970 C   0  0  0  0  0  0  0  0  0  0  0  0
   34.8840   62.5210   52.9680 C   0  0  0  0  0  0  0  0  0  0  0  0
   34.9020   62.9650   51.6440 C   0  0  0  0  0  0  0  0  0  0  0  0
   35.7780   63.9660   51.2520 C   0  0  0  0  0  0  0  0  0  0  0  0
   36.6600   64.5320   52.1770 C   0  0  0  0  0  0  0  0  0  0  0  0
   36.6840   64.0920   53.5270 C   0  0  0  0  0  0  0  0  0  0  0  0
   37.5040   64.4960   54.6530 C   0  0  0  0  0  0  0  0  0  0  0  0
   38.6080   65.4560   54.6340 C   0  0  0  0  0  0  0  0  0  0  0  0
   39.7590   65.0700   54.4300 O   0  0  0  0  0  0  0  0  0  0  0  0
   38.3010   66.8130   54.7780 N   0  0  0  0  0  0  0  0  0  0  0  0
   36.9920   67.3810   54.4540 C   0  0  0  0  0  0  0  0  0  0  0  0
   37.0930   68.7590   53.7840 C   0  0  0  0  0  0  0  0  0  0  0  0
   38.2640   68.7950   52.7780 C   0  0  0  0  0  0  0  0  0  0  0  0
   38.3910   70.0730   52.0230 N   0  0  0  0  0  0  0  0  0  0  0  0
   39.4190   70.9490   52.6150 C   0  0  0  0  0  0  0  0  0  0  0  0
   39.3220   72.3640   52.0450 C   0  0  0  0  0  0  0  0  0  0  0  0
   38.8020   72.4220   50.6100 C   0  0  0  0  0  0  0  0  0  0  0  0
   39.0860   71.1480   49.8080 C   0  0  1  0  0  0  0  0  0  0  0  0
   38.7050   69.8660   50.5900 C   0  0  0  0  0  0  0  0  0  0  0  0
   38.4000   71.2320   48.4380 C   0  0  0  0  0  0  0  0  0  0  0  0
   39.3590   70.5480   47.4760 C   0  0  0  0  0  0  0  0  0  0  0  0
   39.0970   69.0490   47.3140 C   0  0  0  0  0  0  0  0  0  0  0  0
   39.3530   71.2230   46.1040 C   0  0  0  0  0  0  0  0  0  0  0  0
   40.6510   70.7350   48.0640 O   0  0  0  0  0  0  0  0  0  0  0  0
   40.5410   71.0670   49.3840 C   0  0  0  0  0  0  0  0  0  0  0  0
   41.5090   71.2430   50.1070 O   0  0  0  0  0  0  0  0  0  0  0  0
   39.5910   68.4780   53.5240 C   0  0  0  0  0  0  0  0  0  0  0  0
   39.3880   67.7690   54.8590 C   0  0  0  0  0  0  0  0  0  0  0  0
   40.6700   64.7865   61.5179 H   0  0  0  0  0  0  0  0  0  0  0  0
   41.7100   64.6839   60.0569 H   0  0  0  0  0  0  0  0  0  0  0  0
   40.2638   65.7494   60.0569 H   0  0  0  0  0  0  0  0  0  0  0  0
   40.4793   62.9552   59.3405 H   0  0  0  0  0  0  0  0  0  0  0  0
   39.3648   63.1517   60.7598 H   0  0  0  0  0  0  0  0  0  0  0  0
   38.4560   65.0580   59.1430 H   0  0  0  0  0  0  0  0  0  0  0  0
   36.9880   64.8050   57.6550 H   0  0  0  0  0  0  0  0  0  0  0  0
   34.1875   61.7292   53.2811 H   0  0  0  0  0  0  0  0  0  0  0  0
   34.2175   62.5182   50.9080 H   0  0  0  0  0  0  0  0  0  0  0  0
   35.7788   64.3160   50.2092 H   0  0  0  0  0  0  0  0  0  0  0  0
   37.3454   65.3297   51.8546 H   0  0  0  0  0  0  0  0  0  0  0  0
   36.4701   66.6949   53.7707 H   0  0  0  0  0  0  0  0  0  0  0  0
   36.4431   67.5103   55.3984 H   0  0  0  0  0  0  0  0  0  0  0  0
   36.1538   68.9711   53.2520 H   0  0  0  0  0  0  0  0  0  0  0  0
   37.2723   69.5166   54.5611 H   0  0  0  0  0  0  0  0  0  0  0  0
   38.0450   68.0290   52.0196 H   0  0  0  0  0  0  0  0  0  0  0  0
   39.2745   70.9888   53.7047 H   0  0  0  0  0  0  0  0  0  0  0  0
   40.4113   70.5398   52.3743 H   0  0  0  0  0  0  0  0  0  0  0  0
   38.6423   72.9479   52.6830 H   0  0  0  0  0  0  0  0  0  0  0  0
   40.3437   72.7714   52.0297 H   0  0  0  0  0  0  0  0  0  0  0  0
   37.7138   72.5801   50.6396 H   0  0  0  0  0  0  0  0  0  0  0  0
   39.3284   73.2465   50.1069 H   0  0  0  0  0  0  0  0  0  0  0  0
   37.8209   69.4232   50.1081 H   0  0  0  0  0  0  0  0  0  0  0  0
   39.5917   69.2156   50.5619 H   0  0  0  0  0  0  0  0  0  0  0  0
   37.4326   70.7088   48.4571 H   0  0  0  0  0  0  0  0  0  0  0  0
   38.1899   72.2709   48.1437 H   0  0  0  0  0  0  0  0  0  0  0  0
   39.0153   68.5817   48.3064 H   0  0  0  0  0  0  0  0  0  0  0  0
   38.1589   68.8986   46.7596 H   0  0  0  0  0  0  0  0  0  0  0  0
   39.9284   68.5893   46.7596 H   0  0  0  0  0  0  0  0  0  0  0  0
   39.3433   72.3154   46.2328 H   0  0  0  0  0  0  0  0  0  0  0  0
   40.2538   70.9276   45.5461 H   0  0  0  0  0  0  0  0  0  0  0  0
   38.4576   70.9116   45.5461 H   0  0  0  0  0  0  0  0  0  0  0  0
   40.2072   67.8344   52.8789 H   0  0  0  0  0  0  0  0  0  0  0  0
   40.0763   69.4410   53.7413 H   0  0  0  0  0  0  0  0  0  0  0  0
   40.3135   67.2397   55.1299 H   0  0  0  0  0  0  0  0  0  0  0  0
   39.1378   68.5213   55.6216 H   0  0  0  0  0  0  0  0  0  0  0  0
  1  2  1  0
  2  3  1  0
  3  4  1  0
  4  5  2  0
  4  6  1  0
  6  7  1  0
  7  8  1  0
  8  9  1  0
  9 10  2  0
 10 11  1  0
 11 12  2  0
 12 13  1  0
 13 14  2  0
 14 15  1  0
 15 16  1  0
 16 17  2  0
 16 18  1  0
 18 19  1  0
 19 20  1  0
 20 21  1  0
 21 22  1  0
 22 23  1  0
 23 24  1  0
 24 25  1  0
 26 25  1  1
 26 27  1  0
 26 28  1  0
 28 29  1  0
 29 30  1  0
 29 31  1  0
 29 32  1  0
 32 33  1  0
 33 34  2  0
 21 35  1  0
 35 36  1  0
 15  7  2  0
 36 18  1  0
 14  9  1  0
 27 22  1  0
 33 26  1  0
  1 37  1  0
  1 38  1  0
  1 39  1  0
  2 40  1  0
  2 41  1  0
  3 42  1  0
  6 43  1  0
 10 44  1  0
 11 45  1  0
 12 46  1  0
 13 47  1  0
 19 48  1  0
 19 49  1  0
 20 50  1  0
 20 51  1  0
 21 52  1  0
 23 53  1  0
 23 54  1  0
 24 55  1  0
 24 56  1  0
 25 57  1  0
 25 58  1  0
 27 59  1  0
 27 60  1  0
 28 61  1  0
 28 62  1  0
 30 63  1  0
 30 64  1  0
 30 65  1  0
 31 66  1  0
 31 67  1  0
 31 68  1  0
 35 69  1  0
 35 70  1  0
 36 71  1  0
 36 72  1  0
M  END
>  <meeko>  (17) 
{"is_sidechain": [false], "free_energy": -7.339, "intermolecular_energy": -8.931, "internal_energy": -1.28}

$$$$
seed-1002
     RDKit          3D

 72 76  0  0  0  0  0  0  0  0999 V2000
   43.8170   69.7400   58.9880 C   0  0  0  0  0  0  0  0  0  0  0  0
   43.5680   71.0600   58.2830 C   0  0  0  0  0  0  0  0  0  0  0  0
   42.2420   71.1250   57.7050 N   0  0  0  0  0  0  0  0  0  0  0  0
   42.0120   71.7970   56.5150 C   0  0  0  0  0  0  0  0  0  0  0  0
   42.9210   72.3130   55.8790 O   0  0  0  0  0  0  0  0  0  0  0  0
   40.6690   71.7750   56.2040 N   0  0  0  0  0  0  0  0  0  0  0  0
   40.0480   72.3330   55.0960 C   0  0  0  0  0  0  0  0  0  0  0  0
   39.3160   73.8560   55.1540 S   0  0  0  0  0  0  0  0  0  0  0  0
   38.9550   73.8460   53.4770 C   0  0  0  0  0  0  0  0  0  0  0  0
   38.3470   74.8810   52.7390 C   0  0  0  0  0  0  0  0  0  0  0  0
   38.1560   74.7140   51.3660 C   0  0  0  0  0  0  0  0  0  0  0  0
   38.5630   73.5470   50.7380 C   0  0  0  0  0  0  0  0  0  0  0  0
   39.1590   72.5200   51.4770 C   0  0  0  0  0  0  0  0  0  0  0  0
   39.3510   72.6470   52.8790 C   0  0  0  0  0  0  0  0  0  0  0  0
   39.9130   71.7340   53.8550 C   0  0  0  0  0  0  0  0  0  0  0  0
   40.3720   70.3650   53.6140 C   0  0  0  0  0  0  0  0  0  0  0  0
   41.5740   70.1030   53.6390 O   0  0  0  0  0  0  0  0  0  0  0  0
   39.4040   69.3710   53.4350 N   0  0  0  0  0  0  0  0  0  0  0  0
   38.0360   69.4770   53.9430 C   0  0  0  0  0  0  0  0  0  0  0  0
   37.5030   68.1440   54.4890 C   0  0  0  0  0  0  0  0  0  0  0  0
   38.6020   67.3910   55.2690 C   0  0  0  0  0  0  0  0  0  0  0  0
   38.1510   66.1200   55.9010 N   0  0  0  0  0  0  0  0  0  0  0  0
   37.7920   65.1120   54.8870 C   0  0  0  0  0  0  0  0  0  0  0  0
   37.0370   63.9450   55.5240 C   0  0  0  0  0  0  0  0  0  0  0  0
   37.4280   63.6690   56.9750 C   0  0  0  0  0  0  0  0  0  0  0  0
   38.8560   64.1070   57.3140 C   0  0  1  0  0  0  0  0  0  0  0  0
   39.1630   65.5410   56.8160 C   0  0  0  0  0  0  0  0  0  0  0  0
   39.1090   63.9350   58.8180 C   0  0  0  0  0  0  0  0  0  0  0  0
   40.5600   63.4930   58.9240 C   0  0  0  0  0  0  0  0  0  0  0  0
   41.5430   64.6560   59.0750 C   0  0  0  0  0  0  0  0  0  0  0  0
   40.7600   62.4980   60.0670 C   0  0  0  0  0  0  0  0  0  0  0  0
   40.8210   62.8190   57.6880 O   0  0  0  0  0  0  0  0  0  0  0  0
   39.8850   63.1450   56.7490 C   0  0  0  0  0  0  0  0  0  0  0  0
   39.9170   62.7210   55.6050 O   0  0  0  0  0  0  0  0  0  0  0  0
   39.8090   67.1230   54.3260 C   0  0  0  0  0  0  0  0  0  0  0  0
   39.8390   68.0290   53.0980 C   0  0  0  0  0  0  0  0  0  0  0  0
   43.7878   69.8946   60.0767 H   0  0  0  0  0  0  0  0  0  0  0  0
   43.0393   69.0177   58.6992 H   0  0  0  0  0  0  0  0  0  0  0  0
   44.8044   69.3506   58.6992 H   0  0  0  0  0  0  0  0  0  0  0  0
   43.6786   71.8775   59.0106 H   0  0  0  0  0  0  0  0  0  0  0  0
   44.2993   71.1521   57.4664 H   0  0  0  0  0  0  0  0  0  0  0  0
   41.4610   71.0320   58.3370 H   0  0  0  0  0  0  0  0  0  0  0  0
   40.0970   71.1270   56.7350 H   0  0  0  0  0  0  0  0  0  0  0  0
   38.0272   75.8078   53.2377 H   0  0  0  0  0  0  0  0  0  0  0  0
   37.6797   75.5132   50.7791 H   0  0  0  0  0  0  0  0  0  0  0  0
   38.4166   73.4283   49.6543 H   0  0  0  0  0  0  0  0  0  0  0  0
   39.4835   71.6016   50.9659 H   0  0  0  0  0  0  0  0  0  0  0  0
   38.0176   70.2217   54.7524 H   0  0  0  0  0  0  0  0  0  0  0  0
   37.3911   69.7743   53.1029 H   0  0  0  0  0  0  0  0  0  0  0  0
   36.6557   68.3430   55.1617 H   0  0  0  0  0  0  0  0  0  0  0  0
   37.1819   67.5198   53.6421 H   0  0  0  0  0  0  0  0  0  0  0  0
   38.8919   68.0450   56.1046 H   0  0  0  0  0  0  0  0  0  0  0  0
   37.1537   65.5804   54.1233 H   0  0  0  0  0  0  0  0  0  0  0  0
   38.7158   64.7268   54.4307 H   0  0  0  0  0  0  0  0  0  0  0  0
   35.9610   64.1712   55.4929 H   0  0  0  0  0  0  0  0  0  0  0  0
   37.2979   63.0451   54.9477 H   0  0  0  0  0  0  0  0  0  0  0  0
   36.7319   64.2102   57.6327 H   0  0  0  0  0  0  0  0  0  0  0  0
   37.3785   62.5801   57.1232 H   0  0  0  0  0  0  0  0  0  0  0  0
   39.2422   66.1972   57.6953 H   0  0  0  0  0  0  0  0  0  0  0  0
   40.0950   65.4704   56.2360 H   0  0  0  0  0  0  0  0  0  0  0  0
   38.9549   64.8868   59.3475 H   0  0  0  0  0  0  0  0  0  0  0  0
   38.4207   63.2072   59.2726 H   0  0  0  0  0  0  0  0  0  0  0  0
   41.7125   64.8565   60.1432 H   0  0  0  0  0  0  0  0  0  0  0  0
   42.4975   64.3940   58.5952 H   0  0  0  0  0  0  0  0  0  0  0  0
   41.1256   65.5535   58.5952 H   0  0  0  0  0  0  0  0  0  0  0  0
   40.6552   63.0196   61.0298 H   0  0  0  0  0  0  0  0  0  0  0  0
   40.0039   61.7022   59.9969 H   0  0  0  0  0  0  0  0  0  0  0  0
   41.7649   62.0562   59.9969 H   0  0  0  0  0  0  0  0  0  0  0  0
   40.7368   67.2792   54.8959 H   0  0  0  0  0  0  0  0  0  0  0  0
   39.7101   66.0898   53.9618 H   0  0  0  0  0  0  0  0  0  0  0  0
   40.8660   68.0709   52.7062 H   0  0  0  0  0  0  0  0  0  0  0  0
   39.1557   67.6175   52.3405 H   0  0  0  0  0  0  0  0  0  0  0  0
  1  2  1  0
  2  3  1  0
  3  4  1  0
  4  5  2  0
  4  6  1  0
  6  7  1  0
  7  8  1  0
  8  9  1  0
  9 10  2  0
 10 11  1  0
 11 12  2  0
 12 13  1  0
 13 14  2  0
 14 15  1  0
 15 16  1  0
 16 17  2  0
 16 18  1  0
 18 19  1  0
 19 20  1  0
 20 21  1  0
 21 22  1  0
 22 23  1  0
 23 24  1  0
 24 25  1  0
 26 25  1  1
 26 27  1  0
 26 28  1  0
 28 29  1  0
 29 30  1  0
 29 31  1  0
 29 32  1  0
 32 33  1  0
 33 34  2  0
 21 35  1  0
 35 36  1  0
 15  7  2  0
 36 18  1  0
 14  9  1  0
 27 22  1  0
 33 26  1  0
  1 37  1  0
  1 38  1  0
  1 39  1  0
  2 40  1  0
  2 41  1  0
  3 42  1  0
  6 43  1  0
 10 44  1  0
 11 45  1  0
 12 46  1  0
 13 47  1  0
 19 48  1  0
 19 49  1  0
 20 50  1  0
 20 51  1  0
 21 52  1  0
 23 53  1  0
 23 54  1  0
 24 55  1  0
 24 56  1  0
 25 57  1  0
 25 58  1  0
 27 59  1  0
 27 60  1  0
 28 61  1  0
 28 62  1  0
 30 63  1  0
 30 64  1  0
 30 65  1  0
 31 66  1  0
 31 67  1  0
 31 68  1  0
 35 69  1  0
 35 70  1  0
 36 71  1  0
 36 72  1  0
M  END
>  <meeko>  (18) 
{"is_sidechain": [false], "free_energy": -7.284, "intermolecular_energy": -8.61, "internal_energy": -1.535}

$$$$
seed-1002
     RDKit          3D

 72 76  0  0  0  0  0  0  0  0999 V2000
   44.2940   69.8000   58.2560 C   0  0  0  0  0  0  0  0  0  0  0  0
   43.4730   71.0610   58.4530 C   0  0  0  0  0  0  0  0  0  0  0  0
   42.1980   70.9910   57.7690 N   0  0  0  0  0  0  0  0  0  0  0  0
   41.9290   71.7980   56.6750 C   0  0  0  0  0  0  0  0  0  0  0  0
   42.7670   72.5570   56.2110 O   0  0  0  0  0  0  0  0  0  0  0  0
   40.6360   71.5970   56.2390 N   0  0  0  0  0  0  0  0  0  0  0  0
   39.9970   72.2130   55.1730 C   0  0  0  0  0  0  0  0  0  0  0  0
   39.2520   73.7220   55.3270 S   0  0  0  0  0  0  0  0  0  0  0  0
   38.8720   73.8060   53.6560 C   0  0  0  0  0  0  0  0  0  0  0  0
   38.2470   74.8770   52.9860 C   0  0  0  0  0  0  0  0  0  0  0  0
   38.0420   74.7890   51.6080 C   0  0  0  0  0  0  0  0  0  0  0  0
   38.4540   73.6650   50.9090 C   0  0  0  0  0  0  0  0  0  0  0  0
   39.0680   72.6030   51.5800 C   0  0  0  0  0  0  0  0  0  0  0  0
   39.2730   72.6490   52.9850 C   0  0  0  0  0  0  0  0  0  0  0  0
   39.8550   71.6860   53.9000 C   0  0  0  0  0  0  0  0  0  0  0  0
   40.3240   70.3390   53.5750 C   0  0  0  0  0  0  0  0  0  0  0  0
   41.4760   70.0020   53.8490 O   0  0  0  0  0  0  0  0  0  0  0  0
   39.4070   69.4410   53.0190 N   0  0  0  0  0  0  0  0  0  0  0  0
   37.9590   69.5580   53.1920 C   0  0  0  0  0  0  0  0  0  0  0  0
   37.2730   68.1980   53.3860 C   0  0  0  0  0  0  0  0  0  0  0  0
   38.1250   67.2780   54.2870 C   0  0  0  0  0  0  0  0  0  0  0  0
   37.4990   65.9610   54.5930 N   0  0  0  0  0  0  0  0  0  0  0  0
   37.0450   65.8940   55.9940 C   0  0  0  0  0  0  0  0  0  0  0  0
   36.7030   64.4570   56.3880 C   0  0  0  0  0  0  0  0  0  0  0  0
   36.1950   63.5990   55.2300 C   0  0  0  0  0  0  0  0  0  0  0  0
   35.5170   64.4130   54.1220 C   0  0  1  0  0  0  0  0  0  0  0  0
   36.3570   65.6450   53.7030 C   0  0  0  0  0  0  0  0  0  0  0  0
   35.1780   63.4970   52.9380 C   0  0  0  0  0  0  0  0  0  0  0  0
   33.8540   64.0210   52.4030 C   0  0  0  0  0  0  0  0  0  0  0  0
   34.0130   65.0780   51.3080 C   0  0  0  0  0  0  0  0  0  0  0  0
   32.9650   62.8850   51.8980 C   0  0  0  0  0  0  0  0  0  0  0  0
   33.2200   64.6190   53.5400 O   0  0  0  0  0  0  0  0  0  0  0  0
   34.1280   64.8640   54.5300 C   0  0  0  0  0  0  0  0  0  0  0  0
   33.8300   65.4020   55.5850 O   0  0  0  0  0  0  0  0  0  0  0  0
   39.5210   67.0700   53.6340 C   0  0  0  0  0  0  0  0  0  0  0  0
   39.8770   68.1340   52.6000 C   0  0  0  0  0  0  0  0  0  0  0  0
   44.5658   69.3825   59.2367 H   0  0  0  0  0  0  0  0  0  0  0  0
   43.7030   69.0617   57.6942 H   0  0  0  0  0  0  0  0  0  0  0  0
   45.2083   70.0418   57.6942 H   0  0  0  0  0  0  0  0  0  0  0  0
   43.2916   71.2022   59.5287 H   0  0  0  0  0  0  0  0  0  0  0  0
   44.0391   71.9043   58.0308 H   0  0  0  0  0  0  0  0  0  0  0  0
   41.4080   70.6650   58.3040 H   0  0  0  0  0  0  0  0  0  0  0  0
   40.1590   70.7840   56.6120 H   0  0  0  0  0  0  0  0  0  0  0  0
   37.9251   75.7702   53.5415 H   0  0  0  0  0  0  0  0  0  0  0  0
   37.5510   75.6159   51.0740 H   0  0  0  0  0  0  0  0  0  0  0  0
   38.2972   73.6083   49.8217 H   0  0  0  0  0  0  0  0  0  0  0  0
   39.3967   71.7200   51.0123 H   0  0  0  0  0  0  0  0  0  0  0  0
   37.7595   70.1819   54.0757 H   0  0  0  0  0  0  0  0  0  0  0  0
   37.5504   70.0082   52.2753 H   0  0  0  0  0  0  0  0  0  0  0  0
   36.2905   68.3533   53.8556 H   0  0  0  0  0  0  0  0  0  0  0  0
   37.1558   67.7186   52.4029 H   0  0  0  0  0  0  0  0  0  0  0  0
   38.2152   67.7903   55.2562 H   0  0  0  0  0  0  0  0  0  0  0  0
   37.8453   66.2667   56.6502 H   0  0  0  0  0  0  0  0  0  0  0  0
   36.1416   66.5124   56.1009 H   0  0  0  0  0  0  0  0  0  0  0  0
   37.6090   63.9854   56.7964 H   0  0  0  0  0  0  0  0  0  0  0  0
   35.8870   64.5143   57.1234 H   0  0  0  0  0  0  0  0  0  0  0  0
   37.0492   63.0602   54.7941 H   0  0  0  0  0  0  0  0  0  0  0  0
   35.4379   62.9146   55.6403 H   0  0  0  0  0  0  0  0  0  0  0  0
   36.7530   65.4598   52.6936 H   0  0  0  0  0  0  0  0  0  0  0  0
   35.6792   66.5097   53.7566 H   0  0  0  0  0  0  0  0  0  0  0  0
   35.9588   63.5583   52.1656 H   0  0  0  0  0  0  0  0  0  0  0  0
   35.1141   62.4405   53.2374 H   0  0  0  0  0  0  0  0  0  0  0  0
   34.1615   66.0651   51.7701 H   0  0  0  0  0  0  0  0  0  0  0  0
   34.8841   64.8307   50.6834 H   0  0  0  0  0  0  0  0  0  0  0  0
   33.1078   65.0979   50.6834 H   0  0  0  0  0  0  0  0  0  0  0  0
   32.5405   62.3426   52.7557 H   0  0  0  0  0  0  0  0  0  0  0  0
   32.1500   63.3009   51.2874 H   0  0  0  0  0  0  0  0  0  0  0  0
   33.5646   62.1939   51.2874 H   0  0  0  0  0  0  0  0  0  0  0  0
   40.2823   67.0882   54.4278 H   0  0  0  0  0  0  0  0  0  0  0  0
   39.4894   66.1054   53.1062 H   0  0  0  0  0  0  0  0  0  0  0  0
   40.9697   68.1663   52.4781 H   0  0  0  0  0  0  0  0  0  0  0  0
   39.3916   67.8747   51.6476 H   0  0  0  0  0  0  0  0  0  0  0  0
  1  2  1  0
  2  3  1  0
  3  4  1  0
  4  5  2  0
  4  6  1  0
  6  7  1  0
  7  8  1  0
  8  9  1  0
  9 10  2  0
 10 11  1  0
 11 12  2  0
 12 13  1  0
 13 14  2  0
 14 15  1  0
 15 16  1  0
 16 17  2  0
 16 18  1  0
 18 19  1  0
 19 20  1  0
 20 21  1  0
 21 22  1  0
 22 23  1  0
 23 24  1  0
 24 25  1  0
 26 25  1  1
 26 27  1  0
 26 28  1  0
 28 29  1  0
 29 30  1  0
 29 31  1  0
 29 32  1  0
 32 33  1  0
 33 34  2  0
 21 35  1  0
 35 36  1  0
 15  7  2  0
 36 18  1  0
 14  9  1  0
 27 22  1  0
 33 26  1  0
  1 37  1  0
  1 38  1  0
  1 39  1  0
  2 40  1  0
  2 41  1  0
  3 42  1  0
  6 43  1  0
 10 44  1  0
 11 45  1  0
 12 46  1  0
 13 47  1  0
 19 48  1  0
 19 49  1  0
 20 50  1  0
 20 51  1  0
 21 52  1  0
 23 53  1  0
 23 54  1  0
 24 55  1  0
 24 56  1  0
 25 57  1  0
 25 58  1  0
 27 59  1  0
 27 60  1  0
 28 61  1  0
 28 62  1  0
 30 63  1  0
 30 64  1  0
 30 65  1  0
 31 66  1  0
 31 67  1  0
 31 68  1  0
 35 69  1  0
 35 70  1  0
 36 71  1  0
 36 72  1  0
M  END
>  <meeko>  (19) 
{"is_sidechain": [false], "free_energy": -7.232, "intermolecular_energy": -8.81, "internal_energy": -1.27}

$$$$
seed-1002
     RDKit          3D

 72 76  0  0  0  0  0  0  0  0999 V2000
   45.2020   70.2640   48.2080 C   0  0  0  0  0  0  0  0  0  0  0  0
   45.3950   69.3550   47.0080 C   0  0  0  0  0  0  0  0  0  0  0  0
   44.1630   69.1610   46.2710 N   0  0  0  0  0  0  0  0  0  0  0  0
   43.3770   68.0390   46.4770 C   0  0  0  0  0  0  0  0  0  0  0  0
   43.6580   67.1990   47.3210 O   0  0  0  0  0  0  0  0  0  0  0  0
   42.2970   68.0460   45.6190 N   0  0  0  0  0  0  0  0  0  0  0  0
   41.2860   67.1020   45.5220 C   0  0  0  0  0  0  0  0  0  0  0  0
   41.5160   65.6230   44.7360 S   0  0  0  0  0  0  0  0  0  0  0  0
   39.9570   65.0490   45.1670 C   0  0  0  0  0  0  0  0  0  0  0  0
   39.4190   63.7780   44.8830 C   0  0  0  0  0  0  0  0  0  0  0  0
   38.1360   63.4670   45.3400 C   0  0  0  0  0  0  0  0  0  0  0  0
   37.4070   64.3950   46.0680 C   0  0  0  0  0  0  0  0  0  0  0  0
   37.9450   65.6570   46.3400 C   0  0  0  0  0  0  0  0  0  0  0  0
   39.2370   66.0160   45.8730 C   0  0  0  0  0  0  0  0  0  0  0  0
   39.9950   67.2450   46.0020 C   0  0  0  0  0  0  0  0  0  0  0  0
   39.5430   68.4940   46.6160 C   0  0  0  0  0  0  0  0  0  0  0  0
   38.7560   69.2270   46.0180 O   0  0  0  0  0  0  0  0  0  0  0  0
   39.9730   68.7800   47.9160 N   0  0  0  0  0  0  0  0  0  0  0  0
   40.4040   67.7530   48.8660 C   0  0  0  0  0  0  0  0  0  0  0  0
   39.9330   68.0370   50.2990 C   0  0  0  0  0  0  0  0  0  0  0  0
   38.4920   68.5920   50.3040 C   0  0  0  0  0  0  0  0  0  0  0  0
   37.9230   68.8250   51.6610 N   0  0  0  0  0  0  0  0  0  0  0  0
   38.5480   67.9440   52.6650 C   0  0  0  0  0  0  0  0  0  0  0  0
   37.7520   67.9560   53.9700 C   0  0  0  0  0  0  0  0  0  0  0  0
   37.0320   69.2740   54.2470 C   0  0  0  0  0  0  0  0  0  0  0  0
   37.7070   70.4850   53.5960 C   0  0  1  0  0  0  0  0  0  0  0  0
   38.0570   70.2320   52.1080 C   0  0  0  0  0  0  0  0  0  0  0  0
   36.8390   71.7350   53.7950 C   0  0  0  0  0  0  0  0  0  0  0  0
   37.8290   72.8730   53.9950 C   0  0  0  0  0  0  0  0  0  0  0  0
   38.2240   73.5750   52.6950 C   0  0  0  0  0  0  0  0  0  0  0  0
   37.3040   73.9010   54.9980 C   0  0  0  0  0  0  0  0  0  0  0  0
   38.9870   72.2450   54.5570 O   0  0  0  0  0  0  0  0  0  0  0  0
   38.9610   70.8970   54.3460 C   0  0  0  0  0  0  0  0  0  0  0  0
   39.8580   70.1510   54.7030 O   0  0  0  0  0  0  0  0  0  0  0  0
   38.4450   69.9040   49.4690 C   0  0  0  0  0  0  0  0  0  0  0  0
   39.6160   70.0570   48.5040 C   0  0  0  0  0  0  0  0  0  0  0  0
   45.3257   69.6815   49.1329 H   0  0  0  0  0  0  0  0  0  0  0  0
   45.9488   71.0712   48.1804 H   0  0  0  0  0  0  0  0  0  0  0  0
   44.1917   70.6981   48.1804 H   0  0  0  0  0  0  0  0  0  0  0  0
   46.1426   69.8049   46.3381 H   0  0  0  0  0  0  0  0  0  0  0  0
   45.7296   68.3736   47.3752 H   0  0  0  0  0  0  0  0  0  0  0  0
   44.0890   69.6140   45.3730 H   0  0  0  0  0  0  0  0  0  0  0  0
   42.1150   68.9200   45.1380 H   0  0  0  0  0  0  0  0  0  0  0  0
   40.0009   63.0413   44.3097 H   0  0  0  0  0  0  0  0  0  0  0  0
   37.7017   62.4804   45.1211 H   0  0  0  0  0  0  0  0  0  0  0  0
   36.4017   64.1377   46.4330 H   0  0  0  0  0  0  0  0  0  0  0  0
   37.3589   66.3818   46.9240 H   0  0  0  0  0  0  0  0  0  0  0  0
   39.9940   66.7836   48.5464 H   0  0  0  0  0  0  0  0  0  0  0  0
   41.5040   67.7470   48.8727 H   0  0  0  0  0  0  0  0  0  0  0  0
   39.9615   67.1031   50.8795 H   0  0  0  0  0  0  0  0  0  0  0  0
   40.6009   68.7875   50.7469 H   0  0  0  0  0  0  0  0  0  0  0  0
   37.8587   67.8138   49.8531 H   0  0  0  0  0  0  0  0  0  0  0  0
   38.5812   66.9169   52.2725 H   0  0  0  0  0  0  0  0  0  0  0  0
   39.5652   68.3094   52.8696 H   0  0  0  0  0  0  0  0  0  0  0  0
   37.0002   67.1543   53.9238 H   0  0  0  0  0  0  0  0  0  0  0  0
   38.4760   67.8117   54.7854 H   0  0  0  0  0  0  0  0  0  0  0  0
   36.0049   69.1980   53.8607 H   0  0  0  0  0  0  0  0  0  0  0  0
   37.0565   69.4348   55.3349 H   0  0  0  0  0  0  0  0  0  0  0  0
   37.3890   70.8507   51.4908 H   0  0  0  0  0  0  0  0  0  0  0  0
   39.1206   70.4892   51.9954 H   0  0  0  0  0  0  0  0  0  0  0  0
   36.2142   71.9172   52.9082 H   0  0  0  0  0  0  0  0  0  0  0  0
   36.1519   71.6299   54.6476 H   0  0  0  0  0  0  0  0  0  0  0  0
   38.7510   74.5116   52.9296 H   0  0  0  0  0  0  0  0  0  0  0  0
   38.8853   72.9187   52.1102 H   0  0  0  0  0  0  0  0  0  0  0  0
   37.3198   73.7996   52.1102 H   0  0  0  0  0  0  0  0  0  0  0  0
   37.4875   73.5417   56.0213 H   0  0  0  0  0  0  0  0  0  0  0  0
   37.8233   74.8589   54.8471 H   0  0  0  0  0  0  0  0  0  0  0  0
   36.2236   74.0419   54.8471 H   0  0  0  0  0  0  0  0  0  0  0  0
   37.5116   69.9123   48.8870 H   0  0  0  0  0  0  0  0  0  0  0  0
   38.5025   70.7409   50.1805 H   0  0  0  0  0  0  0  0  0  0  0  0
   39.3334   70.7559   47.7029 H   0  0  0  0  0  0  0  0  0  0  0  0
   40.4827   70.4415   49.0616 H   0  0  0  0  0  0  0  0  0  0  0  0
  1  2  1  0
  2  3  1  0
  3  4  1  0
  4  5  2  0
  4  6  1  0
  6  7  1  0
  7  8  1  0
  8  9  1  0
  9 10  2  0
 10 11  1  0
 11 12  2  0
 12 13  1  0
 13 14  2  0
 14 15  1  0
 15 16  1  0
 16 17  2  0
 16 18  1  0
 18 19  1  0
 19 20  1  0
 20 21  1  0
 21 22  1  0
 22 23  1  0
 23 24  1  0
 24 25  1  0
 26 25  1  1
 26 27  1  0
 26 28  1  0
 28 29  1  0
 29 30  1  0
 29 31  1  0
 29 32  1  0
 32 33  1  0
 33 34  2  0
 21 35  1  0
 35 36  1  0
 15  7  2  0
 36 18  1  0
 14  9  1  0
 27 22  1  0
 33 26  1  0
  1 37  1  0
  1 38  1  0
  1 39  1  0
  2 40  1  0
  2 41  1  0
  3 42  1  0
  6 43  1  0
 10 44  1  0
 11 45  1  0
 12 46  1  0
 13 47  1  0
 19 48  1  0
 19 49  1  0
 20 50  1  0
 20 51  1  0
 21 52  1  0
 23 53  1  0
 23 54  1  0
 24 55  1  0
 24 56  1  0
 25 57  1  0
 25 58  1  0
 27 59  1  0
 27 60  1  0
 28 61  1  0
 28 62  1  0
 30 63  1  0
 30 64  1  0
 30 65  1  0
 31 66  1  0
 31 67  1  0
 31 68  1  0
 35 69  1  0
 35 70  1  0
 36 71  1  0
 36 72  1  0
M  END
>  <meeko>  (20) 
{"is_sidechain": [false], "free_energy": -7.025, "intermolecular_energy": -8.423, "internal_energy": -1.401}

$$$$
