seed-5303
     RDKit          3D

 43 44  0  0  0  0  0  0  0  0999 V2000
  135.0730  123.3620  118.0010 C   0  0  0  0  0  0  0  0  0  0  0  0
  135.4860  123.4490  119.3680 O   0  0  0  0  0  0  0  0  0  0  0  0
  135.1680  124.6290  119.9580 C   0  0  0  0  0  0  0  0  0  0  0  0
  134.6140  125.5740  119.4220 O   0  0  0  0  0  0  0  0  0  0  0  0
  135.6140  124.6380  121.3790 C   0  0  0  0  0  0  0  0  0  0  0  0
  135.9290  125.8700  121.9640 C   0  0  0  0  0  0  0  0  0  0  0  0
  136.3390  125.9320  123.2950 C   0  0  0  0  0  0  0  0  0  0  0  0
  136.4530  124.7640  124.0480 C   0  0  0  0  0  0  0  0  0  0  0  0
  136.1660  123.5160  123.4770 C   0  0  0  0  0  0  0  0  0  0  0  0
  136.2950  122.2550  124.2960 C   0  0  0  0  0  0  0  0  0  0  0  0
  134.9780  121.5340  124.6190 C   0  0  0  0  0  0  0  0  0  0  0  0
  134.1700  122.1310  125.7540 N   0  0  2  0  0  0  0  0  0  0  0  0
  134.3100  121.4000  127.0590 C   0  0  0  0  0  0  0  0  0  0  0  0
  132.7300  122.4520  125.4050 C   0  0  0  0  0  0  0  0  0  0  0  0
  132.6060  123.7180  124.5990 C   0  0  0  0  0  0  0  0  0  0  0  0
  132.9050  124.9620  125.1730 C   0  0  0  0  0  0  0  0  0  0  0  0
  132.8190  126.1300  124.4140 C   0  0  0  0  0  0  0  0  0  0  0  0
  132.4350  126.0670  123.0770 C   0  0  0  0  0  0  0  0  0  0  0  0
  132.1300  124.8380  122.4960 C   0  0  0  0  0  0  0  0  0  0  0  0
  132.2140  123.6670  123.2520 C   0  0  0  0  0  0  0  0  0  0  0  0
  135.7270  123.4650  122.1430 C   0  0  0  0  0  0  0  0  0  0  0  0
  133.9975  123.1354  117.9566 H   0  0  0  0  0  0  0  0  0  0  0  0
  135.2668  124.3207  117.4977 H   0  0  0  0  0  0  0  0  0  0  0  0
  135.6371  122.5630  117.4977 H   0  0  0  0  0  0  0  0  0  0  0  0
  135.8527  126.7933  121.3709 H   0  0  0  0  0  0  0  0  0  0  0  0
  136.5731  126.9047  123.7523 H   0  0  0  0  0  0  0  0  0  0  0  0
  136.7710  124.8222  125.0994 H   0  0  0  0  0  0  0  0  0  0  0  0
  136.9362  121.5550  123.7403 H   0  0  0  0  0  0  0  0  0  0  0  0
  136.7115  122.5676  125.2649 H   0  0  0  0  0  0  0  0  0  0  0  0
  134.3530  121.5478  123.7139 H   0  0  0  0  0  0  0  0  0  0  0  0
  135.2594  120.5226  124.9473 H   0  0  0  0  0  0  0  0  0  0  0  0
  134.5970  123.0500  125.9220 H   0  0  0  0  0  0  0  0  0  0  0  0
  134.1747  122.1064  127.8913 H   0  0  0  0  0  0  0  0  0  0  0  0
  133.5468  120.6103  127.1206 H   0  0  0  0  0  0  0  0  0  0  0  0
  135.3110  120.9481  127.1206 H   0  0  0  0  0  0  0  0  0  0  0  0
  132.3133  121.6184  124.8207 H   0  0  0  0  0  0  0  0  0  0  0  0
  132.1798  122.5971  126.3464 H   0  0  0  0  0  0  0  0  0  0  0  0
  133.2094  125.0176  126.2286 H   0  0  0  0  0  0  0  0  0  0  0  0
  133.0549  127.1016  124.8725 H   0  0  0  0  0  0  0  0  0  0  0  0
  132.3724  126.9882  122.4791 H   0  0  0  0  0  0  0  0  0  0  0  0
  131.8228  124.7901  121.4409 H   0  0  0  0  0  0  0  0  0  0  0  0
  131.9716  122.6989  122.7894 H   0  0  0  0  0  0  0  0  0  0  0  0
  135.4690  122.4954  121.6921 H   0  0  0  0  0  0  0  0  0  0  0  0
  1  2  1  0
  2  3  1  0
  3  4  2  0
  3  5  1  0
  5  6  1  0
  6  7  2  0
  7  8  1  0
  8  9  2  0
  9 10  1  0
 10 11  1  0
 11 12  1  0
 12 13  1  0
 12 14  1  0
 14 15  1  0
 15 16  2  0
 16 17  1  0
 17 18  2  0
 18 19  1  0
 19 20  2  0
  9 21  1  0
 21  5  2  0
 20 15  1  0
  1 22  1  0
  1 23  1  0
  1 24  1  0
  6 25  1  0
  7 26  1  0
  8 27  1  0
 10 28  1  0
 10 29  1  0
 11 30  1  0
 11 31  1  0
 12 32  1  1
 13 33  1  0
 13 34  1  0
 13 35  1  0
 14 36  1  0
 14 37  1  0
 16 38  1  0
 17 39  1  0
 18 40  1  0
 19 41  1  0
 20 42  1  0
 21 43  1  0
M  CHG  1  12   1
M  END
>  <meeko>  (1) 
{"is_sidechain": [false], "free_energy": -7.363, "intermolecular_energy": -10.377, "internal_energy": -2.521}

$$$$
seed-5303
     RDKit          3D

 43 44  0  0  0  0  0  0  0  0999 V2000
  130.0140  127.3670  128.5890 C   0  0  0  0  0  0  0  0  0  0  0  0
  130.2900  126.3470  127.6240 O   0  0  0  0  0  0  0  0  0  0  0  0
  131.3010  126.6600  126.7740 C   0  0  0  0  0  0  0  0  0  0  0  0
  131.9030  127.7200  126.7350 O   0  0  0  0  0  0  0  0  0  0  0  0
  131.5750  125.5250  125.8500 C   0  0  0  0  0  0  0  0  0  0  0  0
  131.3860  124.2230  126.3290 C   0  0  0  0  0  0  0  0  0  0  0  0
  131.6170  123.1280  125.4970 C   0  0  0  0  0  0  0  0  0  0  0  0
  132.0520  123.3230  124.1860 C   0  0  0  0  0  0  0  0  0  0  0  0
  132.2710  124.6170  123.6920 C   0  0  0  0  0  0  0  0  0  0  0  0
  132.7460  124.8210  122.2750 C   0  0  0  0  0  0  0  0  0  0  0  0
  134.2190  124.4740  122.0100 C   0  0  0  0  0  0  0  0  0  0  0  0
  135.2080  125.0240  123.0180 N   0  0  2  0  0  0  0  0  0  0  0  0
  135.8380  126.3270  122.6140 C   0  0  0  0  0  0  0  0  0  0  0  0
  136.2150  124.0130  123.5330 C   0  0  0  0  0  0  0  0  0  0  0  0
  135.6750  123.2040  124.6830 C   0  0  0  0  0  0  0  0  0  0  0  0
  135.4440  121.8280  124.5410 C   0  0  0  0  0  0  0  0  0  0  0  0
  134.9730  121.0750  125.6180 C   0  0  0  0  0  0  0  0  0  0  0  0
  134.7280  121.6890  126.8430 C   0  0  0  0  0  0  0  0  0  0  0  0
  134.9470  123.0560  126.9960 C   0  0  0  0  0  0  0  0  0  0  0  0
  135.4180  123.8130  125.9210 C   0  0  0  0  0  0  0  0  0  0  0  0
  132.0090  125.7150  124.5280 C   0  0  0  0  0  0  0  0  0  0  0  0
  130.1260  126.9533  129.6021 H   0  0  0  0  0  0  0  0  0  0  0  0
  130.7189  128.2005  128.4534 H   0  0  0  0  0  0  0  0  0  0  0  0
  128.9850  127.7313  128.4534 H   0  0  0  0  0  0  0  0  0  0  0  0
  131.0541  124.0633  127.3655 H   0  0  0  0  0  0  0  0  0  0  0  0
  131.4558  122.1078  125.8755 H   0  0  0  0  0  0  0  0  0  0  0  0
  132.2247  122.4541  123.5340 H   0  0  0  0  0  0  0  0  0  0  0  0
  132.1272  124.1929  121.6173 H   0  0  0  0  0  0  0  0  0  0  0  0
  132.6520  125.8994  122.0794 H   0  0  0  0  0  0  0  0  0  0  0  0
  134.3138  123.3781  122.0047 H   0  0  0  0  0  0  0  0  0  0  0  0
  134.4729  124.9444  121.0486 H   0  0  0  0  0  0  0  0  0  0  0  0
  134.6410  125.2520  123.8430 H   0  0  0  0  0  0  0  0  0  0  0  0
  136.1131  126.8960  123.5143 H   0  0  0  0  0  0  0  0  0  0  0  0
  136.7396  126.1285  122.0160 H   0  0  0  0  0  0  0  0  0  0  0  0
  135.1225  126.9104  122.0160 H   0  0  0  0  0  0  0  0  0  0  0  0
  136.4808  123.3292  122.7133 H   0  0  0  0  0  0  0  0  0  0  0  0
  137.0938  124.5671  123.8944 H   0  0  0  0  0  0  0  0  0  0  0  0
  135.6352  121.3388  123.5745 H   0  0  0  0  0  0  0  0  0  0  0  0
  134.7954  119.9960  125.4986 H   0  0  0  0  0  0  0  0  0  0  0  0
  134.3607  121.0935  127.6918 H   0  0  0  0  0  0  0  0  0  0  0  0
  134.7489  123.5396  127.9640 H   0  0  0  0  0  0  0  0  0  0  0  0
  135.5885  124.8926  126.0453 H   0  0  0  0  0  0  0  0  0  0  0  0
  132.1455  126.7361  124.1424 H   0  0  0  0  0  0  0  0  0  0  0  0
  1  2  1  0
  2  3  1  0
  3  4  2  0
  3  5  1  0
  5  6  1  0
  6  7  2  0
  7  8  1  0
  8  9  2  0
  9 10  1  0
 10 11  1  0
 11 12  1  0
 12 13  1  0
 12 14  1  0
 14 15  1  0
 15 16  2  0
 16 17  1  0
 17 18  2  0
 18 19  1  0
 19 20  2  0
  9 21  1  0
 21  5  2  0
 20 15  1  0
  1 22  1  0
  1 23  1  0
  1 24  1  0
  6 25  1  0
  7 26  1  0
  8 27  1  0
 10 28  1  0
 10 29  1  0
 11 30  1  0
 11 31  1  0
 12 32  1  1
 13 33  1  0
 13 34  1  0
 13 35  1  0
 14 36  1  0
 14 37  1  0
 16 38  1  0
 17 39  1  0
 18 40  1  0
 19 41  1  0
 20 42  1  0
 21 43  1  0
M  CHG  1  12   1
M  END
>  <meeko>  (2) 
{"is_sidechain": [false], "free_energy": -7.254, "intermolecular_energy": -10.565, "internal_energy": -2.178}

$$$$
seed-5303
     RDKit          3D

 43 44  0  0  0  0  0  0  0  0999 V2000
  133.5660  124.0610  117.2360 C   0  0  0  0  0  0  0  0  0  0  0  0
  134.3320  124.8680  118.1340 O   0  0  0  0  0  0  0  0  0  0  0  0
  134.9390  124.1610  119.1200 C   0  0  0  0  0  0  0  0  0  0  0  0
  135.4480  123.0580  119.0040 O   0  0  0  0  0  0  0  0  0  0  0  0
  134.8820  124.9060  120.4080 C   0  0  0  0  0  0  0  0  0  0  0  0
  136.0790  125.4120  120.9300 C   0  0  0  0  0  0  0  0  0  0  0  0
  136.0750  126.1290  122.1260 C   0  0  0  0  0  0  0  0  0  0  0  0
  134.8820  126.3330  122.8180 C   0  0  0  0  0  0  0  0  0  0  0  0
  133.6750  125.8150  122.3270 C   0  0  0  0  0  0  0  0  0  0  0  0
  132.3880  126.0340  123.0820 C   0  0  0  0  0  0  0  0  0  0  0  0
  132.5050  126.0250  124.6140 C   0  0  0  0  0  0  0  0  0  0  0  0
  131.9610  124.7880  125.3010 N   0  0  2  0  0  0  0  0  0  0  0  0
  130.6510  125.0010  126.0050 C   0  0  0  0  0  0  0  0  0  0  0  0
  132.9720  124.0370  126.1450 C   0  0  0  0  0  0  0  0  0  0  0  0
  134.1850  123.6250  125.3510 C   0  0  0  0  0  0  0  0  0  0  0  0
  134.0580  122.7740  124.2440 C   0  0  0  0  0  0  0  0  0  0  0  0
  135.1790  122.4200  123.4920 C   0  0  0  0  0  0  0  0  0  0  0  0
  136.4350  122.9110  123.8390 C   0  0  0  0  0  0  0  0  0  0  0  0
  136.5750  123.7530  124.9400 C   0  0  0  0  0  0  0  0  0  0  0  0
  135.4570  124.1100  125.6950 C   0  0  0  0  0  0  0  0  0  0  0  0
  133.6830  125.1180  121.1070 C   0  0  0  0  0  0  0  0  0  0  0  0
  132.9211  123.3816  117.8128 H   0  0  0  0  0  0  0  0  0  0  0  0
  132.9424  124.7086  116.6022 H   0  0  0  0  0  0  0  0  0  0  0  0
  134.2452  123.4719  116.6022 H   0  0  0  0  0  0  0  0  0  0  0  0
  137.0252  125.2433  120.3949 H   0  0  0  0  0  0  0  0  0  0  0  0
  137.0163  126.5350  122.5248 H   0  0  0  0  0  0  0  0  0  0  0  0
  134.8876  126.9053  123.7574 H   0  0  0  0  0  0  0  0  0  0  0  0
  131.9807  127.0101  122.7798 H   0  0  0  0  0  0  0  0  0  0  0  0
  131.7410  125.1822  122.8255 H   0  0  0  0  0  0  0  0  0  0  0  0
  133.5701  126.1165  124.8734 H   0  0  0  0  0  0  0  0  0  0  0  0
  131.8894  126.8644  124.9696 H   0  0  0  0  0  0  0  0  0  0  0  0
  131.7440  124.1390  124.5350 H   0  0  0  0  0  0  0  0  0  0  0  0
  130.8110  124.9750  127.0930 H   0  0  0  0  0  0  0  0  0  0  0  0
  130.2356  125.9785  125.7187 H   0  0  0  0  0  0  0  0  0  0  0  0
  129.9473  124.2055  125.7187 H   0  0  0  0  0  0  0  0  0  0  0  0
  133.2943  124.6863  126.9724 H   0  0  0  0  0  0  0  0  0  0  0  0
  132.4869  123.1229  126.5179 H   0  0  0  0  0  0  0  0  0  0  0  0
  133.0681  122.3828  123.9664 H   0  0  0  0  0  0  0  0  0  0  0  0
  135.0703  121.7525  122.6244 H   0  0  0  0  0  0  0  0  0  0  0  0
  137.3173  122.6338  123.2433 H   0  0  0  0  0  0  0  0  0  0  0  0
  137.5685  124.1371  125.2147 H   0  0  0  0  0  0  0  0  0  0  0  0
  135.5728  124.7746  126.5639 H   0  0  0  0  0  0  0  0  0  0  0  0
  132.7384  124.7338  120.6946 H   0  0  0  0  0  0  0  0  0  0  0  0
  1  2  1  0
  2  3  1  0
  3  4  2  0
  3  5  1  0
  5  6  1  0
  6  7  2  0
  7  8  1  0
  8  9  2  0
  9 10  1  0
 10 11  1  0
 11 12  1  0
 12 13  1  0
 12 14  1  0
 14 15  1  0
 15 16  2  0
 16 17  1  0
 17 18  2  0
 18 19  1  0
 19 20  2  0
  9 21  1  0
 21  5  2  0
 20 15  1  0
  1 22  1  0
  1 23  1  0
  1 24  1  0
  6 25  1  0
  7 26  1  0
  8 27  1  0
 10 28  1  0
 10 29  1  0
 11 30  1  0
 11 31  1  0
 12 32  1  6
 13 33  1  0
 13 34  1  0
 13 35  1  0
 14 36  1  0
 14 37  1  0
 16 38  1  0
 17 39  1  0
 18 40  1  0
 19 41  1  0
 20 42  1  0
 21 43  1  0
M  CHG  1  12   1
M  END
>  <meeko>  (3) 
{"is_sidechain": [false], "free_energy": -7.238, "intermolecular_energy": -10.425, "internal_energy": -2.296}

$$$$
seed-5303
     RDKit          3D

 43 44  0  0  0  0  0  0  0  0999 V2000
  135.1530  122.2400  115.8760 C   0  0  0  0  0  0  0  0  0  0  0  0
  134.4710  122.3290  117.1300 O   0  0  0  0  0  0  0  0  0  0  0  0
  134.1320  123.5970  117.4770 C   0  0  0  0  0  0  0  0  0  0  0  0
  133.4680  124.3710  116.8070 O   0  0  0  0  0  0  0  0  0  0  0  0
  134.7100  123.9470  118.8030 C   0  0  0  0  0  0  0  0  0  0  0  0
  135.7570  123.1580  119.2950 C   0  0  0  0  0  0  0  0  0  0  0  0
  136.3400  123.4540  120.5270 C   0  0  0  0  0  0  0  0  0  0  0  0
  135.8740  124.5280  121.2840 C   0  0  0  0  0  0  0  0  0  0  0  0
  134.8100  125.3170  120.8230 C   0  0  0  0  0  0  0  0  0  0  0  0
  134.3060  126.4750  121.6480 C   0  0  0  0  0  0  0  0  0  0  0  0
  134.4370  126.3140  123.1710 C   0  0  0  0  0  0  0  0  0  0  0  0
  133.5400  125.2620  123.7930 N   0  0  2  0  0  0  0  0  0  0  0  0
  132.0770  125.4530  123.5070 C   0  0  0  0  0  0  0  0  0  0  0  0
  133.8260  124.9710  125.2540 C   0  0  0  0  0  0  0  0  0  0  0  0
  134.4340  123.6080  125.4560 C   0  0  0  0  0  0  0  0  0  0  0  0
  134.7600  122.8010  124.3560 C   0  0  0  0  0  0  0  0  0  0  0  0
  135.3530  121.5520  124.5460 C   0  0  0  0  0  0  0  0  0  0  0  0
  135.6230  121.0970  125.8340 C   0  0  0  0  0  0  0  0  0  0  0  0
  135.2990  121.8860  126.9350 C   0  0  0  0  0  0  0  0  0  0  0  0
  134.7070  123.1360  126.7500 C   0  0  0  0  0  0  0  0  0  0  0  0
  134.2470  125.0290  119.5680 C   0  0  0  0  0  0  0  0  0  0  0  0
  136.2295  122.0995  116.0532 H   0  0  0  0  0  0  0  0  0  0  0  0
  134.7608  121.3854  115.3051 H   0  0  0  0  0  0  0  0  0  0  0  0
  134.9932  123.1666  115.3051 H   0  0  0  0  0  0  0  0  0  0  0  0
  136.1209  122.3019  118.7079 H   0  0  0  0  0  0  0  0  0  0  0  0
  137.1703  122.8380  120.9026 H   0  0  0  0  0  0  0  0  0  0  0  0
  136.3448  124.7585  122.2511 H   0  0  0  0  0  0  0  0  0  0  0  0
  134.8709  127.3716  121.3529 H   0  0  0  0  0  0  0  0  0  0  0  0
  133.2270  126.5413  121.4448 H   0  0  0  0  0  0  0  0  0  0  0  0
  135.4801  126.0465  123.3955 H   0  0  0  0  0  0  0  0  0  0  0  0
  134.1238  127.2748  123.6055 H   0  0  0  0  0  0  0  0  0  0  0  0
  133.7890  124.3890  123.3120 H   0  0  0  0  0  0  0  0  0  0  0  0
  131.5244  125.5252  124.4554 H   0  0  0  0  0  0  0  0  0  0  0  0
  131.9342  126.3774  122.9282 H   0  0  0  0  0  0  0  0  0  0  0  0
  131.7016  124.5962  122.9282 H   0  0  0  0  0  0  0  0  0  0  0  0
  134.5244  125.7302  125.6359 H   0  0  0  0  0  0  0  0  0  0  0  0
  132.8693  124.9969  125.7962 H   0  0  0  0  0  0  0  0  0  0  0  0
  134.5468  123.1550  123.3366 H   0  0  0  0  0  0  0  0  0  0  0  0
  135.6073  120.9265  123.6776 H   0  0  0  0  0  0  0  0  0  0  0  0
  136.0927  120.1134  125.9821 H   0  0  0  0  0  0  0  0  0  0  0  0
  135.5100  121.5233  127.9518 H   0  0  0  0  0  0  0  0  0  0  0  0
  134.4527  123.7552  127.6229 H   0  0  0  0  0  0  0  0  0  0  0  0
  133.4332  125.6594  119.1803 H   0  0  0  0  0  0  0  0  0  0  0  0
  1  2  1  0
  2  3  1  0
  3  4  2  0
  3  5  1  0
  5  6  1  0
  6  7  2  0
  7  8  1  0
  8  9  2  0
  9 10  1  0
 10 11  1  0
 11 12  1  0
 12 13  1  0
 12 14  1  0
 14 15  1  0
 15 16  2  0
 16 17  1  0
 17 18  2  0
 18 19  1  0
 19 20  2  0
  9 21  1  0
 21  5  2  0
 20 15  1  0
  1 22  1  0
  1 23  1  0
  1 24  1  0
  6 25  1  0
  7 26  1  0
  8 27  1  0
 10 28  1  0
 10 29  1  0
 11 30  1  0
 11 31  1  0
 12 32  1  6
 13 33  1  0
 13 34  1  0
 13 35  1  0
 14 36  1  0
 14 37  1  0
 16 38  1  0
 17 39  1  0
 18 40  1  0
 19 41  1  0
 20 42  1  0
 21 43  1  0
M  CHG  1  12   1
M  END
>  <meeko>  (4) 
{"is_sidechain": [false], "free_energy": -7.217, "intermolecular_energy": -11.857, "internal_energy": -0.834}

$$$$
seed-5303
     RDKit          3D

 43 44  0  0  0  0  0  0  0  0999 V2000
  134.9130  122.5410  117.7230 C   0  0  0  0  0  0  0  0  0  0  0  0
  135.3910  123.5660  118.6000 O   0  0  0  0  0  0  0  0  0  0  0  0
  134.6070  124.6730  118.6220 C   0  0  0  0  0  0  0  0  0  0  0  0
  134.1990  125.2830  117.6480 O   0  0  0  0  0  0  0  0  0  0  0  0
  134.3180  125.0790  120.0250 C   0  0  0  0  0  0  0  0  0  0  0  0
  133.0490  124.7950  120.5460 C   0  0  0  0  0  0  0  0  0  0  0  0
  132.7350  125.1450  121.8590 C   0  0  0  0  0  0  0  0  0  0  0  0
  133.6780  125.7930  122.6570 C   0  0  0  0  0  0  0  0  0  0  0  0
  134.9460  126.1090  122.1490 C   0  0  0  0  0  0  0  0  0  0  0  0
  135.9600  126.8140  123.0150 C   0  0  0  0  0  0  0  0  0  0  0  0
  135.7300  126.7060  124.5310 C   0  0  0  0  0  0  0  0  0  0  0  0
  136.5940  125.6880  125.2490 N   0  0  2  0  0  0  0  0  0  0  0  0
  137.9280  126.2180  125.6940 C   0  0  0  0  0  0  0  0  0  0  0  0
  136.6910  124.3410  124.5590 C   0  0  0  0  0  0  0  0  0  0  0  0
  135.8110  123.3040  125.2070 C   0  0  0  0  0  0  0  0  0  0  0  0
  135.1010  123.6010  126.3790 C   0  0  0  0  0  0  0  0  0  0  0  0
  134.2630  122.6480  126.9580 C   0  0  0  0  0  0  0  0  0  0  0  0
  134.1270  121.3910  126.3750 C   0  0  0  0  0  0  0  0  0  0  0  0
  134.8320  121.0810  125.2140 C   0  0  0  0  0  0  0  0  0  0  0  0
  135.6710  122.0310  124.6300 C   0  0  0  0  0  0  0  0  0  0  0  0
  135.2640  125.7280  120.8340 C   0  0  0  0  0  0  0  0  0  0  0  0
  134.5219  121.7024  118.3179 H   0  0  0  0  0  0  0  0  0  0  0  0
  134.1108  122.9460  117.0885 H   0  0  0  0  0  0  0  0  0  0  0  0
  135.7388  122.1868  117.0885 H   0  0  0  0  0  0  0  0  0  0  0  0
  132.2978  124.2943  119.9175 H   0  0  0  0  0  0  0  0  0  0  0  0
  131.7408  124.9094  122.2665 H   0  0  0  0  0  0  0  0  0  0  0  0
  133.4245  126.0584  123.6940 H   0  0  0  0  0  0  0  0  0  0  0  0
  136.9495  126.3885  122.7919 H   0  0  0  0  0  0  0  0  0  0  0  0
  135.8702  127.8833  122.7729 H   0  0  0  0  0  0  0  0  0  0  0  0
  135.9278  127.6926  124.9754 H   0  0  0  0  0  0  0  0  0  0  0  0
  134.6918  126.3647  124.6564 H   0  0  0  0  0  0  0  0  0  0  0  0
  136.0890  125.4860  126.1210 H   0  0  0  0  0  0  0  0  0  0  0  0
  137.9681  126.2339  126.7932 H   0  0  0  0  0  0  0  0  0  0  0  0
  138.7278  125.5693  125.3073 H   0  0  0  0  0  0  0  0  0  0  0  0
  138.0645  127.2387  125.3073 H   0  0  0  0  0  0  0  0  0  0  0  0
  136.3856  124.4583  123.5088 H   0  0  0  0  0  0  0  0  0  0  0  0
  137.7326  123.9961  124.6373 H   0  0  0  0  0  0  0  0  0  0  0  0
  135.2055  124.5920  126.8449 H   0  0  0  0  0  0  0  0  0  0  0  0
  133.7087  122.8900  127.8768 H   0  0  0  0  0  0  0  0  0  0  0  0
  133.4627  120.6423  126.8312 H   0  0  0  0  0  0  0  0  0  0  0  0
  134.7271  120.0859  124.7570 H   0  0  0  0  0  0  0  0  0  0  0  0
  136.2255  121.7817  123.7133 H   0  0  0  0  0  0  0  0  0  0  0  0
  136.2663  125.9409  120.4339 H   0  0  0  0  0  0  0  0  0  0  0  0
  1  2  1  0
  2  3  1  0
  3  4  2  0
  3  5  1  0
  5  6  1  0
  6  7  2  0
  7  8  1  0
  8  9  2  0
  9 10  1  0
 10 11  1  0
 11 12  1  0
 12 13  1  0
 12 14  1  0
 14 15  1  0
 15 16  2  0
 16 17  1  0
 17 18  2  0
 18 19  1  0
 19 20  2  0
  9 21  1  0
 21  5  2  0
 20 15  1  0
  1 22  1  0
  1 23  1  0
  1 24  1  0
  6 25  1  0
  7 26  1  0
  8 27  1  0
 10 28  1  0
 10 29  1  0
 11 30  1  0
 11 31  1  0
 12 32  1  1
 13 33  1  0
 13 34  1  0
 13 35  1  0
 14 36  1  0
 14 37  1  0
 16 38  1  0
 17 39  1  0
 18 40  1  0
 19 41  1  0
 20 42  1  0
 21 43  1  0
M  CHG  1  12   1
M  END
>  <meeko>  (5) 
{"is_sidechain": [false], "free_energy": -6.835, "intermolecular_energy": -11.321, "internal_energy": -0.832}

$$$$
seed-5303
     RDKit          3D

 43 44  0  0  0  0  0  0  0  0999 V2000
  134.8840  122.7990  116.8430 C   0  0  0  0  0  0  0  0  0  0  0  0
  135.0430  123.1230  118.2270 O   0  0  0  0  0  0  0  0  0  0  0  0
  134.6190  124.3720  118.5460 C   0  0  0  0  0  0  0  0  0  0  0  0
  134.2500  125.2270  117.7580 O   0  0  0  0  0  0  0  0  0  0  0  0
  134.6860  124.5850  120.0180 C   0  0  0  0  0  0  0  0  0  0  0  0
  134.2470  125.8130  120.5270 C   0  0  0  0  0  0  0  0  0  0  0  0
  134.2780  126.0560  121.9000 C   0  0  0  0  0  0  0  0  0  0  0  0
  134.7610  125.0820  122.7730 C   0  0  0  0  0  0  0  0  0  0  0  0
  135.2290  123.8540  122.2840 C   0  0  0  0  0  0  0  0  0  0  0  0
  135.7540  122.8060  123.2330 C   0  0  0  0  0  0  0  0  0  0  0  0
  136.1060  123.3020  124.6440 C   0  0  0  0  0  0  0  0  0  0  0  0
  135.5650  122.4620  125.7840 N   0  0  2  0  0  0  0  0  0  0  0  0
  136.5170  121.4090  126.2780 C   0  0  0  0  0  0  0  0  0  0  0  0
  134.1580  121.9370  125.5700 C   0  0  0  0  0  0  0  0  0  0  0  0
  133.1080  122.9290  125.9940 C   0  0  0  0  0  0  0  0  0  0  0  0
  133.3610  124.3070  125.9330 C   0  0  0  0  0  0  0  0  0  0  0  0
  132.3740  125.2240  126.2970 C   0  0  0  0  0  0  0  0  0  0  0  0
  131.1280  124.7750  126.7260 C   0  0  0  0  0  0  0  0  0  0  0  0
  130.8660  123.4080  126.7970 C   0  0  0  0  0  0  0  0  0  0  0  0
  131.8500  122.4870  126.4340 C   0  0  0  0  0  0  0  0  0  0  0  0
  135.1680  123.6070  120.9020 C   0  0  0  0  0  0  0  0  0  0  0  0
  134.4011  121.8150  116.7499 H   0  0  0  0  0  0  0  0  0  0  0  0
  134.2580  123.5621  116.3574 H   0  0  0  0  0  0  0  0  0  0  0  0
  135.8706  122.7707  116.3574 H   0  0  0  0  0  0  0  0  0  0  0  0
  133.8762  126.5892  119.8414 H   0  0  0  0  0  0  0  0  0  0  0  0
  133.9206  127.0184  122.2951 H   0  0  0  0  0  0  0  0  0  0  0  0
  134.7750  125.2787  123.8552 H   0  0  0  0  0  0  0  0  0  0  0  0
  134.9866  122.0240  123.3312 H   0  0  0  0  0  0  0  0  0  0  0  0
  136.6987  122.4511  122.7953 H   0  0  0  0  0  0  0  0  0  0  0  0
  137.2023  123.3262  124.7312 H   0  0  0  0  0  0  0  0  0  0  0  0
  135.6318  124.2894  124.7445 H   0  0  0  0  0  0  0  0  0  0  0  0
  135.4690  123.1170  126.5690 H   0  0  0  0  0  0  0  0  0  0  0  0
  136.5206  121.4050  127.3780 H   0  0  0  0  0  0  0  0  0  0  0  0
  136.1973  120.4234  125.9088 H   0  0  0  0  0  0  0  0  0  0  0  0
  137.5298  121.6280  125.9088 H   0  0  0  0  0  0  0  0  0  0  0  0
  134.0225  121.7133  124.5016 H   0  0  0  0  0  0  0  0  0  0  0  0
  134.0377  121.0347  126.1875 H   0  0  0  0  0  0  0  0  0  0  0  0
  134.3441  124.6675  125.5960 H   0  0  0  0  0  0  0  0  0  0  0  0
  132.5808  126.3031  126.2449 H   0  0  0  0  0  0  0  0  0  0  0  0
  130.3501  125.4994  127.0090 H   0  0  0  0  0  0  0  0  0  0  0  0
  129.8823  123.0544  127.1396 H   0  0  0  0  0  0  0  0  0  0  0  0
  131.6388  121.4091  126.4929 H   0  0  0  0  0  0  0  0  0  0  0  0
  135.5019  122.6357  120.5083 H   0  0  0  0  0  0  0  0  0  0  0  0
  1  2  1  0
  2  3  1  0
  3  4  2  0
  3  5  1  0
  5  6  1  0
  6  7  2  0
  7  8  1  0
  8  9  2  0
  9 10  1  0
 10 11  1  0
 11 12  1  0
 12 13  1  0
 12 14  1  0
 14 15  1  0
 15 16  2  0
 16 17  1  0
 17 18  2  0
 18 19  1  0
 19 20  2  0
  9 21  1  0
 21  5  2  0
 20 15  1  0
  1 22  1  0
  1 23  1  0
  1 24  1  0
  6 25  1  0
  7 26  1  0
  8 27  1  0
 10 28  1  0
 10 29  1  0
 11 30  1  0
 11 31  1  0
 12 32  1  1
 13 33  1  0
 13 34  1  0
 13 35  1  0
 14 36  1  0
 14 37  1  0
 16 38  1  0
 17 39  1  0
 18 40  1  0
 19 41  1  0
 20 42  1  0
 21 43  1  0
M  CHG  1  12   1
M  END
>  <meeko>  (6) 
{"is_sidechain": [false], "free_energy": -6.782, "intermolecular_energy": -11.47, "internal_energy": -0.608}

$$$$
seed-5303
     RDKit          3D

 43 44  0  0  0  0  0  0  0  0999 V2000
  137.5810  126.4060  125.4060 C   0  0  0  0  0  0  0  0  0  0  0  0
  136.3420  127.0040  125.0150 O   0  0  0  0  0  0  0  0  0  0  0  0
  136.1070  126.9470  123.6800 C   0  0  0  0  0  0  0  0  0  0  0  0
  136.4210  127.7930  122.8590 O   0  0  0  0  0  0  0  0  0  0  0  0
  135.3730  125.6990  123.3320 C   0  0  0  0  0  0  0  0  0  0  0  0
  136.0680  124.6950  122.6480 C   0  0  0  0  0  0  0  0  0  0  0  0
  135.4280  123.5020  122.3110 C   0  0  0  0  0  0  0  0  0  0  0  0
  134.0860  123.3100  122.6410 C   0  0  0  0  0  0  0  0  0  0  0  0
  133.3640  124.3110  123.3040 C   0  0  0  0  0  0  0  0  0  0  0  0
  131.9120  124.0990  123.6540 C   0  0  0  0  0  0  0  0  0  0  0  0
  131.5840  122.7740  124.3600 C   0  0  0  0  0  0  0  0  0  0  0  0
  131.2330  122.8890  125.8300 N   0  0  2  0  0  0  0  0  0  0  0  0
  130.9810  124.2950  126.2940 C   0  0  0  0  0  0  0  0  0  0  0  0
  132.1450  122.1120  126.7600 C   0  0  0  0  0  0  0  0  0  0  0  0
  133.5890  122.1900  126.3410 C   0  0  0  0  0  0  0  0  0  0  0  0
  134.3610  123.3200  126.6500 C   0  0  0  0  0  0  0  0  0  0  0  0
  135.7080  123.3760  126.2880 C   0  0  0  0  0  0  0  0  0  0  0  0
  136.2950  122.3070  125.6150 C   0  0  0  0  0  0  0  0  0  0  0  0
  135.5370  121.1820  125.2980 C   0  0  0  0  0  0  0  0  0  0  0  0
  134.1900  121.1210  125.6580 C   0  0  0  0  0  0  0  0  0  0  0  0
  134.0240  125.4980  123.6640 C   0  0  0  0  0  0  0  0  0  0  0  0
  137.6433  126.3759  126.5038 H   0  0  0  0  0  0  0  0  0  0  0  0
  137.6359  125.3822  125.0074 H   0  0  0  0  0  0  0  0  0  0  0  0
  138.4167  126.9999  125.0074 H   0  0  0  0  0  0  0  0  0  0  0  0
  137.1227  124.8471  122.3751 H   0  0  0  0  0  0  0  0  0  0  0  0
  135.9824  122.7114  121.7842 H   0  0  0  0  0  0  0  0  0  0  0  0
  133.5902  122.3639  122.3782 H   0  0  0  0  0  0  0  0  0  0  0  0
  131.6002  124.9208  124.3154 H   0  0  0  0  0  0  0  0  0  0  0  0
  131.3734  124.0696  122.6953 H   0  0  0  0  0  0  0  0  0  0  0  0
  130.7284  122.3163  123.8418 H   0  0  0  0  0  0  0  0  0  0  0  0
  132.5030  122.1713  124.3146 H   0  0  0  0  0  0  0  0  0  0  0  0
  130.3250  122.4160  125.9190 H   0  0  0  0  0  0  0  0  0  0  0  0
  130.9760  124.3229  127.3936 H   0  0  0  0  0  0  0  0  0  0  0  0
  131.7753  124.9544  125.9141 H   0  0  0  0  0  0  0  0  0  0  0  0
  130.0072  124.6375  125.9141 H   0  0  0  0  0  0  0  0  0  0  0  0
  132.0486  122.5238  127.7755 H   0  0  0  0  0  0  0  0  0  0  0  0
  131.8409  121.0555  126.7243 H   0  0  0  0  0  0  0  0  0  0  0  0
  133.9020  124.1671  127.1808 H   0  0  0  0  0  0  0  0  0  0  0  0
  136.3066  124.2653  126.5345 H   0  0  0  0  0  0  0  0  0  0  0  0
  137.3575  122.3511  125.3337 H   0  0  0  0  0  0  0  0  0  0  0  0
  136.0010  120.3403  124.7630 H   0  0  0  0  0  0  0  0  0  0  0  0
  133.5960  120.2304  125.4051 H   0  0  0  0  0  0  0  0  0  0  0  0
  133.4771  126.2790  124.2125 H   0  0  0  0  0  0  0  0  0  0  0  0
  1  2  1  0
  2  3  1  0
  3  4  2  0
  3  5  1  0
  5  6  1  0
  6  7  2  0
  7  8  1  0
  8  9  2  0
  9 10  1  0
 10 11  1  0
 11 12  1  0
 12 13  1  0
 12 14  1  0
 14 15  1  0
 15 16  2  0
 16 17  1  0
 17 18  2  0
 18 19  1  0
 19 20  2  0
  9 21  1  0
 21  5  2  0
 20 15  1  0
  1 22  1  0
  1 23  1  0
  1 24  1  0
  6 25  1  0
  7 26  1  0
  8 27  1  0
 10 28  1  0
 10 29  1  0
 11 30  1  0
 11 31  1  0
 12 32  1  6
 13 33  1  0
 13 34  1  0
 13 35  1  0
 14 36  1  0
 14 37  1  0
 16 38  1  0
 17 39  1  0
 18 40  1  0
 19 41  1  0
 20 42  1  0
 21 43  1  0
M  CHG  1  12   1
M  END
>  <meeko>  (7) 
{"is_sidechain": [false], "free_energy": -6.738, "intermolecular_energy": -9.747, "internal_energy": -2.269}

$$$$
seed-5303
     RDKit          3D

 43 44  0  0  0  0  0  0  0  0999 V2000
  136.4860  127.5380  125.1440 C   0  0  0  0  0  0  0  0  0  0  0  0
  135.8600  126.2640  124.9630 O   0  0  0  0  0  0  0  0  0  0  0  0
  136.6410  125.2170  125.3280 C   0  0  0  0  0  0  0  0  0  0  0  0
  137.8490  125.2480  125.5000 O   0  0  0  0  0  0  0  0  0  0  0  0
  135.8240  123.9810  125.4710 C   0  0  0  0  0  0  0  0  0  0  0  0
  136.4400  122.7490  125.2170 C   0  0  0  0  0  0  0  0  0  0  0  0
  135.7190  121.5630  125.3500 C   0  0  0  0  0  0  0  0  0  0  0  0
  134.3750  121.5960  125.7220 C   0  0  0  0  0  0  0  0  0  0  0  0
  133.7310  122.8190  125.9570 C   0  0  0  0  0  0  0  0  0  0  0  0
  132.2760  122.8500  126.3550 C   0  0  0  0  0  0  0  0  0  0  0  0
  131.2970  123.3030  125.2600 C   0  0  0  0  0  0  0  0  0  0  0  0
  131.7390  124.5040  124.4480 N   0  0  2  0  0  0  0  0  0  0  0  0
  130.9740  125.7630  124.7440 C   0  0  0  0  0  0  0  0  0  0  0  0
  131.8960  124.2400  122.9630 C   0  0  0  0  0  0  0  0  0  0  0  0
  133.2480  124.6600  122.4480 C   0  0  0  0  0  0  0  0  0  0  0  0
  134.2660  123.7140  122.2580 C   0  0  0  0  0  0  0  0  0  0  0  0
  135.5070  124.1030  121.7510 C   0  0  0  0  0  0  0  0  0  0  0  0
  135.7430  125.4370  121.4310 C   0  0  0  0  0  0  0  0  0  0  0  0
  134.7420  126.3880  121.6210 C   0  0  0  0  0  0  0  0  0  0  0  0
  133.5000  126.0040  122.1280 C   0  0  0  0  0  0  0  0  0  0  0  0
  134.4720  124.0080  125.8480 C   0  0  0  0  0  0  0  0  0  0  0  0
  136.5885  127.7467  126.2191 H   0  0  0  0  0  0  0  0  0  0  0  0
  137.4814  127.5272  124.6760 H   0  0  0  0  0  0  0  0  0  0  0  0
  135.8692  128.3194  124.6760 H   0  0  0  0  0  0  0  0  0  0  0  0
  137.4963  122.7170  124.9115 H   0  0  0  0  0  0  0  0  0  0  0  0
  136.2118  120.5979  125.1609 H   0  0  0  0  0  0  0  0  0  0  0  0
  133.8160  120.6550  125.8318 H   0  0  0  0  0  0  0  0  0  0  0  0
  131.9888  121.8350  126.6668 H   0  0  0  0  0  0  0  0  0  0  0  0
  132.1993  123.6000  127.1560 H   0  0  0  0  0  0  0  0  0  0  0  0
  131.1493  122.4611  124.5676 H   0  0  0  0  0  0  0  0  0  0  0  0
  130.3799  123.6120  125.7829 H   0  0  0  0  0  0  0  0  0  0  0  0
  132.6960  124.6980  124.7690 H   0  0  0  0  0  0  0  0  0  0  0  0
  130.8934  125.8956  125.8330 H   0  0  0  0  0  0  0  0  0  0  0  0
  131.5018  126.6239  124.3078 H   0  0  0  0  0  0  0  0  0  0  0  0
  129.9667  125.6911  124.3078 H   0  0  0  0  0  0  0  0  0  0  0  0
  131.7663  123.1632  122.7794 H   0  0  0  0  0  0  0  0  0  0  0  0
  131.1351  124.8321  122.4334 H   0  0  0  0  0  0  0  0  0  0  0  0
  134.0852  122.6587  122.5102 H   0  0  0  0  0  0  0  0  0  0  0  0
  136.2995  123.3544  121.6041 H   0  0  0  0  0  0  0  0  0  0  0  0
  136.7203  125.7408  121.0278 H   0  0  0  0  0  0  0  0  0  0  0  0
  134.9313  127.4424  121.3710 H   0  0  0  0  0  0  0  0  0  0  0  0
  132.7137  126.7584  122.2779 H   0  0  0  0  0  0  0  0  0  0  0  0
  133.9866  124.9719  126.0607 H   0  0  0  0  0  0  0  0  0  0  0  0
  1  2  1  0
  2  3  1  0
  3  4  2  0
  3  5  1  0
  5  6  1  0
  6  7  2  0
  7  8  1  0
  8  9  2  0
  9 10  1  0
 10 11  1  0
 11 12  1  0
 12 13  1  0
 12 14  1  0
 14 15  1  0
 15 16  2  0
 16 17  1  0
 17 18  2  0
 18 19  1  0
 19 20  2  0
  9 21  1  0
 21  5  2  0
 20 15  1  0
  1 22  1  0
  1 23  1  0
  1 24  1  0
  6 25  1  0
  7 26  1  0
  8 27  1  0
 10 28  1  0
 10 29  1  0
 11 30  1  0
 11 31  1  0
 12 32  1  1
 13 33  1  0
 13 34  1  0
 13 35  1  0
 14 36  1  0
 14 37  1  0
 16 38  1  0
 17 39  1  0
 18 40  1  0
 19 41  1  0
 20 42  1  0
 21 43  1  0
M  CHG  1  12   1
M  END
>  <meeko>  (8) 
{"is_sidechain": [false], "free_energy": -6.724, "intermolecular_energy": -10.312, "internal_energy": -1.684}

$$$$
seed-5303
     RDKit          3D

 43 44  0  0  0  0  0  0  0  0999 V2000
  131.2640  128.0650  127.7520 C   0  0  0  0  0  0  0  0  0  0  0  0
  131.9640  127.3350  126.7410 O   0  0  0  0  0  0  0  0  0  0  0  0
  131.2700  127.2070  125.5830 C   0  0  0  0  0  0  0  0  0  0  0  0
  130.3980  127.9590  125.1810 O   0  0  0  0  0  0  0  0  0  0  0  0
  131.6970  125.9820  124.8510 C   0  0  0  0  0  0  0  0  0  0  0  0
  131.7590  126.0360  123.4530 C   0  0  0  0  0  0  0  0  0  0  0  0
  132.1660  124.9190  122.7250 C   0  0  0  0  0  0  0  0  0  0  0  0
  132.4990  123.7360  123.3830 C   0  0  0  0  0  0  0  0  0  0  0  0
  132.4210  123.6500  124.7800 C   0  0  0  0  0  0  0  0  0  0  0  0
  132.7780  122.3660  125.4870 C   0  0  0  0  0  0  0  0  0  0  0  0
  134.0330  122.4200  126.3720 C   0  0  0  0  0  0  0  0  0  0  0  0
  135.3520  122.2730  125.6400 N   0  0  2  0  0  0  0  0  0  0  0  0
  136.2440  121.1960  126.1900 C   0  0  0  0  0  0  0  0  0  0  0  0
  136.0830  123.5770  125.3860 C   0  0  0  0  0  0  0  0  0  0  0  0
  136.0200  123.9950  123.9400 C   0  0  0  0  0  0  0  0  0  0  0  0
  136.0140  123.0330  122.9190 C   0  0  0  0  0  0  0  0  0  0  0  0
  135.9240  123.4220  121.5820 C   0  0  0  0  0  0  0  0  0  0  0  0
  135.8410  124.7720  121.2520 C   0  0  0  0  0  0  0  0  0  0  0  0
  135.8520  125.7380  122.2570 C   0  0  0  0  0  0  0  0  0  0  0  0
  135.9410  125.3530  123.5950 C   0  0  0  0  0  0  0  0  0  0  0  0
  132.0370  124.7890  125.5090 C   0  0  0  0  0  0  0  0  0  0  0  0
  131.5920  127.7230  128.7447 H   0  0  0  0  0  0  0  0  0  0  0  0
  131.4791  129.1384  127.6445 H   0  0  0  0  0  0  0  0  0  0  0  0
  130.1825  127.8952  127.6445 H   0  0  0  0  0  0  0  0  0  0  0  0
  131.4856  126.9629  122.9276 H   0  0  0  0  0  0  0  0  0  0  0  0
  132.2246  124.9712  121.6278 H   0  0  0  0  0  0  0  0  0  0  0  0
  132.8260  122.8620  122.8006 H   0  0  0  0  0  0  0  0  0  0  0  0
  131.9271  122.0829  126.1240 H   0  0  0  0  0  0  0  0  0  0  0  0
  133.0018  121.6384  124.6929 H   0  0  0  0  0  0  0  0  0  0  0  0
  134.0399  123.3892  126.8922 H   0  0  0  0  0  0  0  0  0  0  0  0
  133.9640  121.5554  127.0485 H   0  0  0  0  0  0  0  0  0  0  0  0
  135.0940  121.9450  124.7010 H   0  0  0  0  0  0  0  0  0  0  0  0
  136.2195  121.2255  127.2893 H   0  0  0  0  0  0  0  0  0  0  0  0
  135.8910  120.2141  125.8416 H   0  0  0  0  0  0  0  0  0  0  0  0
  137.2744  121.3599  125.8416 H   0  0  0  0  0  0  0  0  0  0  0  0
  135.6255  124.3649  126.0023 H   0  0  0  0  0  0  0  0  0  0  0  0
  137.1409  123.4264  125.6472 H   0  0  0  0  0  0  0  0  0  0  0  0
  136.0807  121.9651  123.1741 H   0  0  0  0  0  0  0  0  0  0  0  0
  135.9186  122.6610  120.7877 H   0  0  0  0  0  0  0  0  0  0  0  0
  135.7667  125.0766  120.1976 H   0  0  0  0  0  0  0  0  0  0  0  0
  135.7905  126.8045  121.9949 H   0  0  0  0  0  0  0  0  0  0  0  0
  135.9493  126.1188  124.3846 H   0  0  0  0  0  0  0  0  0  0  0  0
  132.0025  124.7452  126.6076 H   0  0  0  0  0  0  0  0  0  0  0  0
  1  2  1  0
  2  3  1  0
  3  4  2  0
  3  5  1  0
  5  6  1  0
  6  7  2  0
  7  8  1  0
  8  9  2  0
  9 10  1  0
 10 11  1  0
 11 12  1  0
 12 13  1  0
 12 14  1  0
 14 15  1  0
 15 16  2  0
 16 17  1  0
 17 18  2  0
 18 19  1  0
 19 20  2  0
  9 21  1  0
 21  5  2  0
 20 15  1  0
  1 22  1  0
  1 23  1  0
  1 24  1  0
  6 25  1  0
  7 26  1  0
  8 27  1  0
 10 28  1  0
 10 29  1  0
 11 30  1  0
 11 31  1  0
 12 32  1  6
 13 33  1  0
 13 34  1  0
 13 35  1  0
 14 36  1  0
 14 37  1  0
 16 38  1  0
 17 39  1  0
 18 40  1  0
 19 41  1  0
 20 42  1  0
 21 43  1  0
M  CHG  1  12   1
M  END
>  <meeko>  (9) 
{"is_sidechain": [false], "free_energy": -6.669, "intermolecular_energy": -9.946, "internal_energy": -1.973}

$$$$
seed-5303
     RDKit          3D

 43 44  0  0  0  0  0  0  0  0999 V2000
  131.6820  128.7860  128.8650 C   0  0  0  0  0  0  0  0  0  0  0  0
  130.6730  127.9440  128.2980 O   0  0  0  0  0  0  0  0  0  0  0  0
  130.9360  127.5650  127.0220 C   0  0  0  0  0  0  0  0  0  0  0  0
  131.0700  128.3100  126.0640 O   0  0  0  0  0  0  0  0  0  0  0  0
  131.0170  126.0810  126.9250 C   0  0  0  0  0  0  0  0  0  0  0  0
  129.9210  125.3310  127.3680 C   0  0  0  0  0  0  0  0  0  0  0  0
  129.9440  123.9390  127.2860 C   0  0  0  0  0  0  0  0  0  0  0  0
  131.0650  123.2850  126.7760 C   0  0  0  0  0  0  0  0  0  0  0  0
  132.1830  124.0150  126.3480 C   0  0  0  0  0  0  0  0  0  0  0  0
  133.3950  123.3020  125.8010 C   0  0  0  0  0  0  0  0  0  0  0  0
  133.9710  123.8740  124.4970 C   0  0  0  0  0  0  0  0  0  0  0  0
  134.8410  122.9240  123.6980 N   0  0  2  0  0  0  0  0  0  0  0  0
  135.3090  121.7220  124.4690 C   0  0  0  0  0  0  0  0  0  0  0  0
  135.9510  123.5930  122.9100 C   0  0  0  0  0  0  0  0  0  0  0  0
  135.4980  124.0250  121.5400 C   0  0  0  0  0  0  0  0  0  0  0  0
  135.7810  123.2390  120.4130 C   0  0  0  0  0  0  0  0  0  0  0  0
  135.3320  123.6270  119.1500 C   0  0  0  0  0  0  0  0  0  0  0  0
  134.6000  124.8010  119.0000 C   0  0  0  0  0  0  0  0  0  0  0  0
  134.3170  125.5940  120.1100 C   0  0  0  0  0  0  0  0  0  0  0  0
  134.7630  125.2100  121.3760 C   0  0  0  0  0  0  0  0  0  0  0  0
  132.1410  125.4180  126.4090 C   0  0  0  0  0  0  0  0  0  0  0  0
  131.6251  128.7385  129.9625 H   0  0  0  0  0  0  0  0  0  0  0  0
  132.6737  128.4437  128.5341 H   0  0  0  0  0  0  0  0  0  0  0  0
  131.5228  129.8229  128.5341 H   0  0  0  0  0  0  0  0  0  0  0  0
  129.0389  125.8413  127.7821 H   0  0  0  0  0  0  0  0  0  0  0  0
  129.0753  123.3553  127.6246 H   0  0  0  0  0  0  0  0  0  0  0  0
  131.0723  122.1871  126.7089 H   0  0  0  0  0  0  0  0  0  0  0  0
  134.1847  123.3421  126.5657 H   0  0  0  0  0  0  0  0  0  0  0  0
  133.0600  122.2825  125.5595 H   0  0  0  0  0  0  0  0  0  0  0  0
  133.1284  124.1799  123.8594 H   0  0  0  0  0  0  0  0  0  0  0  0
  134.6256  124.7064  124.7946 H   0  0  0  0  0  0  0  0  0  0  0  0
  134.2160  122.5440  122.9750 H   0  0  0  0  0  0  0  0  0  0  0  0
  135.2301  121.9246  125.5473 H   0  0  0  0  0  0  0  0  0  0  0  0
  134.6828  120.8549  124.2120 H   0  0  0  0  0  0  0  0  0  0  0  0
  136.3567  121.5067  124.2120 H   0  0  0  0  0  0  0  0  0  0  0  0
  136.2947  124.4786  123.4647 H   0  0  0  0  0  0  0  0  0  0  0  0
  136.7615  122.8605  122.7814 H   0  0  0  0  0  0  0  0  0  0  0  0
  136.3606  122.3109  120.5256 H   0  0  0  0  0  0  0  0  0  0  0  0
  135.5570  123.0040  118.2718 H   0  0  0  0  0  0  0  0  0  0  0  0
  134.2444  125.1032  118.0039 H   0  0  0  0  0  0  0  0  0  0  0  0
  133.7416  126.5236  119.9888 H   0  0  0  0  0  0  0  0  0  0  0  0
  134.5374  125.8392  122.2496 H   0  0  0  0  0  0  0  0  0  0  0  0
  132.9993  126.0037  126.0480 H   0  0  0  0  0  0  0  0  0  0  0  0
  1  2  1  0
  2  3  1  0
  3  4  2  0
  3  5  1  0
  5  6  1  0
  6  7  2  0
  7  8  1  0
  8  9  2  0
  9 10  1  0
 10 11  1  0
 11 12  1  0
 12 13  1  0
 12 14  1  0
 14 15  1  0
 15 16  2  0
 16 17  1  0
 17 18  2  0
 18 19  1  0
 19 20  2  0
  9 21  1  0
 21  5  2  0
 20 15  1  0
  1 22  1  0
  1 23  1  0
  1 24  1  0
  6 25  1  0
  7 26  1  0
  8 27  1  0
 10 28  1  0
 10 29  1  0
 11 30  1  0
 11 31  1  0
 12 32  1  6
 13 33  1  0
 13 34  1  0
 13 35  1  0
 14 36  1  0
 14 37  1  0
 16 38  1  0
 17 39  1  0
 18 40  1  0
 19 41  1  0
 20 42  1  0
 21 43  1  0
M  CHG  1  12   1
M  END
>  <meeko>  (10) 
{"is_sidechain": [false], "free_energy": -6.515, "intermolecular_energy": -11.307, "internal_energy": -0.394}

$$$$
seed-5303
     RDKit          3D

 43 44  0  0  0  0  0  0  0  0999 V2000
  131.6580  128.4080  128.3160 C   0  0  0  0  0  0  0  0  0  0  0  0
  131.8270  127.9870  126.9590 O   0  0  0  0  0  0  0  0  0  0  0  0
  130.8460  127.1580  126.5210 C   0  0  0  0  0  0  0  0  0  0  0  0
  129.7100  127.4850  126.2220 O   0  0  0  0  0  0  0  0  0  0  0  0
  131.3350  125.7520  126.4740 C   0  0  0  0  0  0  0  0  0  0  0  0
  130.4800  124.7410  126.9290 C   0  0  0  0  0  0  0  0  0  0  0  0
  130.8870  123.4080  126.8930 C   0  0  0  0  0  0  0  0  0  0  0  0
  132.1550  123.0740  126.4180 C   0  0  0  0  0  0  0  0  0  0  0  0
  133.0380  124.0720  125.9800 C   0  0  0  0  0  0  0  0  0  0  0  0
  134.4100  123.7060  125.4710 C   0  0  0  0  0  0  0  0  0  0  0  0
  135.5690  124.5570  126.0130 C   0  0  0  0  0  0  0  0  0  0  0  0
  136.3150  125.3750  124.9770 N   0  0  2  0  0  0  0  0  0  0  0  0
  137.6280  125.9260  125.4570 C   0  0  0  0  0  0  0  0  0  0  0  0
  135.4680  126.4050  124.2540 C   0  0  0  0  0  0  0  0  0  0  0  0
  135.1270  125.9800  122.8500 C   0  0  0  0  0  0  0  0  0  0  0  0
  133.7930  125.9530  122.4160 C   0  0  0  0  0  0  0  0  0  0  0  0
  133.4840  125.5890  121.1050 C   0  0  0  0  0  0  0  0  0  0  0  0
  134.5010  125.2470  120.2170 C   0  0  0  0  0  0  0  0  0  0  0  0
  135.8290  125.2640  120.6380 C   0  0  0  0  0  0  0  0  0  0  0  0
  136.1430  125.6280  121.9480 C   0  0  0  0  0  0  0  0  0  0  0  0
  132.6090  125.4100  125.9940 C   0  0  0  0  0  0  0  0  0  0  0  0
  131.9811  127.6031  128.9926 H   0  0  0  0  0  0  0  0  0  0  0  0
  132.2650  129.3069  128.4993 H   0  0  0  0  0  0  0  0  0  0  0  0
  130.5980  128.6377  128.4993 H   0  0  0  0  0  0  0  0  0  0  0  0
  129.4834  124.9993  127.3163 H   0  0  0  0  0  0  0  0  0  0  0  0
  130.2058  122.6172  127.2403 H   0  0  0  0  0  0  0  0  0  0  0  0
  132.4653  122.0191  126.3866 H   0  0  0  0  0  0  0  0  0  0  0  0
  134.6035  122.6580  125.7436 H   0  0  0  0  0  0  0  0  0  0  0  0
  134.3862  123.8867  124.3862 H   0  0  0  0  0  0  0  0  0  0  0  0
  135.1594  125.2504  126.7623 H   0  0  0  0  0  0  0  0  0  0  0  0
  136.3015  123.8459  126.4226 H   0  0  0  0  0  0  0  0  0  0  0  0
  136.5660  124.7010  124.2440 H   0  0  0  0  0  0  0  0  0  0  0  0
  137.6429  125.9323  126.5569 H   0  0  0  0  0  0  0  0  0  0  0  0
  138.4487  125.2964  125.0827 H   0  0  0  0  0  0  0  0  0  0  0  0
  137.7536  126.9527  125.0827 H   0  0  0  0  0  0  0  0  0  0  0  0
  134.5339  126.5523  124.8158 H   0  0  0  0  0  0  0  0  0  0  0  0
  136.0503  127.3362  124.1919 H   0  0  0  0  0  0  0  0  0  0  0  0
  132.9857  126.2205  123.1137 H   0  0  0  0  0  0  0  0  0  0  0  0
  132.4357  125.5721  120.7723 H   0  0  0  0  0  0  0  0  0  0  0  0
  134.2557  124.9634  119.1829 H   0  0  0  0  0  0  0  0  0  0  0  0
  136.6310  124.9901  119.9368 H   0  0  0  0  0  0  0  0  0  0  0  0
  137.1930  125.6391  122.2756 H   0  0  0  0  0  0  0  0  0  0  0  0
  133.2799  126.1993  125.6242 H   0  0  0  0  0  0  0  0  0  0  0  0
  1  2  1  0
  2  3  1  0
  3  4  2  0
  3  5  1  0
  5  6  1  0
  6  7  2  0
  7  8  1  0
  8  9  2  0
  9 10  1  0
 10 11  1  0
 11 12  1  0
 12 13  1  0
 12 14  1  0
 14 15  1  0
 15 16  2  0
 16 17  1  0
 17 18  2  0
 18 19  1  0
 19 20  2  0
  9 21  1  0
 21  5  2  0
 20 15  1  0
  1 22  1  0
  1 23  1  0
  1 24  1  0
  6 25  1  0
  7 26  1  0
  8 27  1  0
 10 28  1  0
 10 29  1  0
 11 30  1  0
 11 31  1  0
 12 32  1  6
 13 33  1  0
 13 34  1  0
 13 35  1  0
 14 36  1  0
 14 37  1  0
 16 38  1  0
 17 39  1  0
 18 40  1  0
 19 41  1  0
 20 42  1  0
 21 43  1  0
M  CHG  1  12   1
M  END
>  <meeko>  (11) 
{"is_sidechain": [false], "free_energy": -6.365, "intermolecular_energy": -10.488, "internal_energy": -1.003}

$$$$
seed-5303
     RDKit          3D

 43 44  0  0  0  0  0  0  0  0999 V2000
  127.4580  125.3320  128.9640 C   0  0  0  0  0  0  0  0  0  0  0  0
  128.8610  125.5840  128.8320 O   0  0  0  0  0  0  0  0  0  0  0  0
  129.2000  126.1680  127.6550 C   0  0  0  0  0  0  0  0  0  0  0  0
  128.6820  127.1610  127.1710 O   0  0  0  0  0  0  0  0  0  0  0  0
  130.2990  125.4100  126.9950 C   0  0  0  0  0  0  0  0  0  0  0  0
  130.2760  124.0130  127.0730 C   0  0  0  0  0  0  0  0  0  0  0  0
  131.2760  123.2590  126.4590 C   0  0  0  0  0  0  0  0  0  0  0  0
  132.3140  123.8930  125.7770 C   0  0  0  0  0  0  0  0  0  0  0  0
  132.3710  125.2920  125.7070 C   0  0  0  0  0  0  0  0  0  0  0  0
  133.4990  125.9730  124.9720 C   0  0  0  0  0  0  0  0  0  0  0  0
  133.9660  125.2810  123.6820 C   0  0  0  0  0  0  0  0  0  0  0  0
  135.4560  125.3420  123.4140 N   0  0  2  0  0  0  0  0  0  0  0  0
  135.8430  126.2680  122.2960 C   0  0  0  0  0  0  0  0  0  0  0  0
  136.1400  123.9910  123.3290 C   0  0  0  0  0  0  0  0  0  0  0  0
  135.7550  123.0830  124.4680 C   0  0  0  0  0  0  0  0  0  0  0  0
  135.9560  123.4830  125.7970 C   0  0  0  0  0  0  0  0  0  0  0  0
  135.5700  122.6530  126.8510 C   0  0  0  0  0  0  0  0  0  0  0  0
  134.9820  121.4190  126.5870 C   0  0  0  0  0  0  0  0  0  0  0  0
  134.7820  121.0080  125.2710 C   0  0  0  0  0  0  0  0  0  0  0  0
  135.1670  121.8340  124.2140 C   0  0  0  0  0  0  0  0  0  0  0  0
  131.3450  126.0440  126.3040 C   0  0  0  0  0  0  0  0  0  0  0  0
  127.1928  125.2844  130.0305 H   0  0  0  0  0  0  0  0  0  0  0  0
  126.8928  126.1430  128.4815 H   0  0  0  0  0  0  0  0  0  0  0  0
  127.2104  124.3750  128.4815 H   0  0  0  0  0  0  0  0  0  0  0  0
  129.4666  123.5078  127.6204 H   0  0  0  0  0  0  0  0  0  0  0  0
  131.2457  122.1607  126.5129 H   0  0  0  0  0  0  0  0  0  0  0  0
  133.0947  123.2903  125.2898 H   0  0  0  0  0  0  0  0  0  0  0  0
  133.1674  126.9886  124.7100 H   0  0  0  0  0  0  0  0  0  0  0  0
  134.3608  125.9481  125.6551 H   0  0  0  0  0  0  0  0  0  0  0  0
  133.6749  124.2218  123.7407 H   0  0  0  0  0  0  0  0  0  0  0  0
  133.4870  125.8262  122.8554 H   0  0  0  0  0  0  0  0  0  0  0  0
  135.8560  125.7700  124.2580 H   0  0  0  0  0  0  0  0  0  0  0  0
  136.2351  127.2061  122.7159 H   0  0  0  0  0  0  0  0  0  0  0  0
  136.6173  125.7916  121.6767 H   0  0  0  0  0  0  0  0  0  0  0  0
  134.9600  126.4843  121.6767 H   0  0  0  0  0  0  0  0  0  0  0  0
  135.8563  123.5098  122.3814 H   0  0  0  0  0  0  0  0  0  0  0  0
  137.2256  124.1592  123.3846 H   0  0  0  0  0  0  0  0  0  0  0  0
  136.4207  124.4569  126.0103 H   0  0  0  0  0  0  0  0  0  0  0  0
  135.7306  122.9742  127.8907 H   0  0  0  0  0  0  0  0  0  0  0  0
  134.6749  120.7677  127.4186 H   0  0  0  0  0  0  0  0  0  0  0  0
  134.3201  120.0312  125.0647 H   0  0  0  0  0  0  0  0  0  0  0  0
  135.0089  121.5045  123.1765 H   0  0  0  0  0  0  0  0  0  0  0  0
  131.3611  127.1414  126.2294 H   0  0  0  0  0  0  0  0  0  0  0  0
  1  2  1  0
  2  3  1  0
  3  4  2  0
  3  5  1  0
  5  6  1  0
  6  7  2  0
  7  8  1  0
  8  9  2  0
  9 10  1  0
 10 11  1  0
 11 12  1  0
 12 13  1  0
 12 14  1  0
 14 15  1  0
 15 16  2  0
 16 17  1  0
 17 18  2  0
 18 19  1  0
 19 20  2  0
  9 21  1  0
 21  5  2  0
 20 15  1  0
  1 22  1  0
  1 23  1  0
  1 24  1  0
  6 25  1  0
  7 26  1  0
  8 27  1  0
 10 28  1  0
 10 29  1  0
 11 30  1  0
 11 31  1  0
 12 32  1  1
 13 33  1  0
 13 34  1  0
 13 35  1  0
 14 36  1  0
 14 37  1  0
 16 38  1  0
 17 39  1  0
 18 40  1  0
 19 41  1  0
 20 42  1  0
 21 43  1  0
M  CHG  1  12   1
M  END
>  <meeko>  (12) 
{"is_sidechain": [false], "free_energy": -6.348, "intermolecular_energy": -10.188, "internal_energy": -1.278}

$$$$
seed-5303
     RDKit          3D

 43 44  0  0  0  0  0  0  0  0999 V2000
  136.1560  125.6150  121.4440 C   0  0  0  0  0  0  0  0  0  0  0  0
  135.2150  124.8030  122.1520 O   0  0  0  0  0  0  0  0  0  0  0  0
  135.6690  123.5540  122.4230 C   0  0  0  0  0  0  0  0  0  0  0  0
  136.5360  122.9560  121.8080 O   0  0  0  0  0  0  0  0  0  0  0  0
  134.9390  122.9740  123.5840 C   0  0  0  0  0  0  0  0  0  0  0  0
  135.4360  121.7950  124.1540 C   0  0  0  0  0  0  0  0  0  0  0  0
  134.7940  121.2210  125.2510 C   0  0  0  0  0  0  0  0  0  0  0  0
  133.6450  121.8090  125.7780 C   0  0  0  0  0  0  0  0  0  0  0  0
  133.1150  122.9760  125.2090 C   0  0  0  0  0  0  0  0  0  0  0  0
  131.8690  123.6050  125.7800 C   0  0  0  0  0  0  0  0  0  0  0  0
  131.8410  125.1420  125.7830 C   0  0  0  0  0  0  0  0  0  0  0  0
  130.8930  125.7760  124.7840 N   0  0  2  0  0  0  0  0  0  0  0  0
  131.5380  126.1660  123.4840 C   0  0  0  0  0  0  0  0  0  0  0  0
  130.0080  126.8660  125.3570 C   0  0  0  0  0  0  0  0  0  0  0  0
  129.3280  127.6730  124.2820 C   0  0  0  0  0  0  0  0  0  0  0  0
  128.2450  127.1410  123.5670 C   0  0  0  0  0  0  0  0  0  0  0  0
  127.5980  127.9030  122.5930 C   0  0  0  0  0  0  0  0  0  0  0  0
  128.0250  129.2010  122.3250 C   0  0  0  0  0  0  0  0  0  0  0  0
  129.1020  129.7390  123.0250 C   0  0  0  0  0  0  0  0  0  0  0  0
  129.7530  128.9810  123.9990 C   0  0  0  0  0  0  0  0  0  0  0  0
  133.7840  123.5640  124.1210 C   0  0  0  0  0  0  0  0  0  0  0  0
  136.7858  126.1585  122.1637 H   0  0  0  0  0  0  0  0  0  0  0  0
  136.7897  124.9755  120.8119 H   0  0  0  0  0  0  0  0  0  0  0  0
  135.6161  126.3355  120.8119 H   0  0  0  0  0  0  0  0  0  0  0  0
  136.3355  121.3203  123.7351 H   0  0  0  0  0  0  0  0  0  0  0  0
  135.1955  120.3015  125.7018 H   0  0  0  0  0  0  0  0  0  0  0  0
  133.1496  121.3534  126.6481 H   0  0  0  0  0  0  0  0  0  0  0  0
  131.0108  123.2523  125.1891 H   0  0  0  0  0  0  0  0  0  0  0  0
  131.8368  123.3019  126.8369 H   0  0  0  0  0  0  0  0  0  0  0  0
  131.5459  125.4743  126.7892 H   0  0  0  0  0  0  0  0  0  0  0  0
  132.8510  125.4646  125.4900 H   0  0  0  0  0  0  0  0  0  0  0  0
  130.2350  125.0270  124.5360 H   0  0  0  0  0  0  0  0  0  0  0  0
  132.4631  126.7254  123.6870 H   0  0  0  0  0  0  0  0  0  0  0  0
  131.7762  125.2605  122.9067 H   0  0  0  0  0  0  0  0  0  0  0  0
  130.8468  126.7976  122.9067 H   0  0  0  0  0  0  0  0  0  0  0  0
  129.2384  126.4006  125.9904 H   0  0  0  0  0  0  0  0  0  0  0  0
  130.6466  127.5482  125.9374 H   0  0  0  0  0  0  0  0  0  0  0  0
  127.9033  126.1164  123.7753 H   0  0  0  0  0  0  0  0  0  0  0  0
  126.7498  127.4777  122.0365 H   0  0  0  0  0  0  0  0  0  0  0  0
  127.5113  129.8017  121.5600 H   0  0  0  0  0  0  0  0  0  0  0  0
  129.4401  130.7634  122.8097 H   0  0  0  0  0  0  0  0  0  0  0  0
  130.6039  129.4105  124.5482 H   0  0  0  0  0  0  0  0  0  0  0  0
  133.3977  124.4974  123.6855 H   0  0  0  0  0  0  0  0  0  0  0  0
  1  2  1  0
  2  3  1  0
  3  4  2  0
  3  5  1  0
  5  6  1  0
  6  7  2  0
  7  8  1  0
  8  9  2  0
  9 10  1  0
 10 11  1  0
 11 12  1  0
 12 13  1  0
 12 14  1  0
 14 15  1  0
 15 16  2  0
 16 17  1  0
 17 18  2  0
 18 19  1  0
 19 20  2  0
  9 21  1  0
 21  5  2  0
 20 15  1  0
  1 22  1  0
  1 23  1  0
  1 24  1  0
  6 25  1  0
  7 26  1  0
  8 27  1  0
 10 28  1  0
 10 29  1  0
 11 30  1  0
 11 31  1  0
 12 32  1  6
 13 33  1  0
 13 34  1  0
 13 35  1  0
 14 36  1  0
 14 37  1  0
 16 38  1  0
 17 39  1  0
 18 40  1  0
 19 41  1  0
 20 42  1  0
 21 43  1  0
M  CHG  1  12   1
M  END
>  <meeko>  (13) 
{"is_sidechain": [false], "free_energy": -6.291, "intermolecular_energy": -11.193, "internal_energy": -0.193}

$$$$
seed-5303
     RDKit          3D

 43 44  0  0  0  0  0  0  0  0999 V2000
  129.7290  128.5790  125.1630 C   0  0  0  0  0  0  0  0  0  0  0  0
  130.8900  127.7440  125.1800 O   0  0  0  0  0  0  0  0  0  0  0  0
  131.2940  127.3990  126.4280 C   0  0  0  0  0  0  0  0  0  0  0  0
  131.8860  128.1200  127.2160 O   0  0  0  0  0  0  0  0  0  0  0  0
  130.9400  125.9830  126.7190 C   0  0  0  0  0  0  0  0  0  0  0  0
  129.7280  125.7260  127.3710 C   0  0  0  0  0  0  0  0  0  0  0  0
  129.3460  124.4150  127.6530 C   0  0  0  0  0  0  0  0  0  0  0  0
  130.1770  123.3520  127.3010 C   0  0  0  0  0  0  0  0  0  0  0  0
  131.4060  123.5860  126.6700 C   0  0  0  0  0  0  0  0  0  0  0  0
  132.3030  122.4310  126.2950 C   0  0  0  0  0  0  0  0  0  0  0  0
  133.8120  122.7040  126.3890 C   0  0  0  0  0  0  0  0  0  0  0  0
  134.5420  122.7890  125.0640 N   0  0  2  0  0  0  0  0  0  0  0  0
  135.3080  121.5480  124.7020 C   0  0  0  0  0  0  0  0  0  0  0  0
  135.3430  124.0600  124.8630 C   0  0  0  0  0  0  0  0  0  0  0  0
  134.8530  124.8650  123.6870 C   0  0  0  0  0  0  0  0  0  0  0  0
  135.6270  125.9110  123.1660 C   0  0  0  0  0  0  0  0  0  0  0  0
  135.1840  126.6340  122.0570 C   0  0  0  0  0  0  0  0  0  0  0  0
  133.9650  126.3200  121.4610 C   0  0  0  0  0  0  0  0  0  0  0  0
  133.1840  125.2860  121.9740 C   0  0  0  0  0  0  0  0  0  0  0  0
  133.6230  124.5610  123.0820 C   0  0  0  0  0  0  0  0  0  0  0  0
  131.7710  124.9080  126.3640 C   0  0  0  0  0  0  0  0  0  0  0  0
  129.4213  128.8003  126.1957 H   0  0  0  0  0  0  0  0  0  0  0  0
  129.9608  129.5186  124.6401 H   0  0  0  0  0  0  0  0  0  0  0  0
  128.9119  128.0603  124.6401 H   0  0  0  0  0  0  0  0  0  0  0  0
  129.0745  126.5616  127.6620 H   0  0  0  0  0  0  0  0  0  0  0  0
  128.3868  124.2188  128.1544 H   0  0  0  0  0  0  0  0  0  0  0  0
  129.8649  122.3203  127.5207 H   0  0  0  0  0  0  0  0  0  0  0  0
  132.0690  121.5898  126.9641 H   0  0  0  0  0  0  0  0  0  0  0  0
  132.1002  122.2251  125.2336 H   0  0  0  0  0  0  0  0  0  0  0  0
  133.9516  123.6599  126.9150 H   0  0  0  0  0  0  0  0  0  0  0  0
  134.2433  121.8409  126.9172 H   0  0  0  0  0  0  0  0  0  0  0  0
  133.7960  122.8500  124.3590 H   0  0  0  0  0  0  0  0  0  0  0  0
  135.6261  121.0326  125.6202 H   0  0  0  0  0  0  0  0  0  0  0  0
  134.6650  120.8797  124.1104 H   0  0  0  0  0  0  0  0  0  0  0  0
  136.1936  121.8232  124.1104 H   0  0  0  0  0  0  0  0  0  0  0  0
  135.2632  124.6757  125.7710 H   0  0  0  0  0  0  0  0  0  0  0  0
  136.3857  123.7725  124.6629 H   0  0  0  0  0  0  0  0  0  0  0  0
  136.5898  126.1639  123.6340 H   0  0  0  0  0  0  0  0  0  0  0  0
  135.7983  127.4524  121.6535 H   0  0  0  0  0  0  0  0  0  0  0  0
  133.6186  126.8883  120.5852 H   0  0  0  0  0  0  0  0  0  0  0  0
  132.2199  125.0412  121.5045 H   0  0  0  0  0  0  0  0  0  0  0  0
  133.0022  123.7467  123.4839 H   0  0  0  0  0  0  0  0  0  0  0  0
  132.7185  125.1031  125.8404 H   0  0  0  0  0  0  0  0  0  0  0  0
  1  2  1  0
  2  3  1  0
  3  4  2  0
  3  5  1  0
  5  6  1  0
  6  7  2  0
  7  8  1  0
  8  9  2  0
  9 10  1  0
 10 11  1  0
 11 12  1  0
 12 13  1  0
 12 14  1  0
 14 15  1  0
 15 16  2  0
 16 17  1  0
 17 18  2  0
 18 19  1  0
 19 20  2  0
  9 21  1  0
 21  5  2  0
 20 15  1  0
  1 22  1  0
  1 23  1  0
  1 24  1  0
  6 25  1  0
  7 26  1  0
  8 27  1  0
 10 28  1  0
 10 29  1  0
 11 30  1  0
 11 31  1  0
 12 32  1  6
 13 33  1  0
 13 34  1  0
 13 35  1  0
 14 36  1  0
 14 37  1  0
 16 38  1  0
 17 39  1  0
 18 40  1  0
 19 41  1  0
 20 42  1  0
 21 43  1  0
M  CHG  1  12   1
M  END
>  <meeko>  (14) 
{"is_sidechain": [false], "free_energy": -6.269, "intermolecular_energy": -10.359, "internal_energy": -0.995}

$$$$
seed-5303
     RDKit          3D

 43 44  0  0  0  0  0  0  0  0999 V2000
  134.0840  124.3290  117.6410 C   0  0  0  0  0  0  0  0  0  0  0  0
  133.9850  124.8060  118.9870 O   0  0  0  0  0  0  0  0  0  0  0  0
  135.0140  124.4160  119.7800 C   0  0  0  0  0  0  0  0  0  0  0  0
  135.9160  123.6580  119.4640 O   0  0  0  0  0  0  0  0  0  0  0  0
  134.8890  125.0240  121.1330 C   0  0  0  0  0  0  0  0  0  0  0  0
  135.9900  125.7210  121.6470 C   0  0  0  0  0  0  0  0  0  0  0  0
  135.9170  126.3200  122.9040 C   0  0  0  0  0  0  0  0  0  0  0  0
  134.7520  126.2150  123.6650 C   0  0  0  0  0  0  0  0  0  0  0  0
  133.6460  125.5010  123.1810 C   0  0  0  0  0  0  0  0  0  0  0  0
  132.3910  125.3870  124.0100 C   0  0  0  0  0  0  0  0  0  0  0  0
  132.4460  126.0500  125.3950 C   0  0  0  0  0  0  0  0  0  0  0  0
  131.3590  127.0700  125.6720 N   0  0  2  0  0  0  0  0  0  0  0  0
  131.4190  127.6760  127.0460 C   0  0  0  0  0  0  0  0  0  0  0  0
  129.9630  126.6290  125.2780 C   0  0  0  0  0  0  0  0  0  0  0  0
  129.3220  127.5740  124.2950 C   0  0  0  0  0  0  0  0  0  0  0  0
  129.8840  128.8340  124.0450 C   0  0  0  0  0  0  0  0  0  0  0  0
  129.3050  129.6940  123.1110 C   0  0  0  0  0  0  0  0  0  0  0  0
  128.1610  129.3040  122.4190 C   0  0  0  0  0  0  0  0  0  0  0  0
  127.5890  128.0570  122.6620 C   0  0  0  0  0  0  0  0  0  0  0  0
  128.1650  127.1940  123.5960 C   0  0  0  0  0  0  0  0  0  0  0  0
  133.7180  124.9250  121.9010 C   0  0  0  0  0  0  0  0  0  0  0  0
  134.3075  123.2520  117.6492 H   0  0  0  0  0  0  0  0  0  0  0  0
  133.1309  124.5017  117.1197 H   0  0  0  0  0  0  0  0  0  0  0  0
  134.8897  124.8668  117.1197 H   0  0  0  0  0  0  0  0  0  0  0  0
  136.9153  125.7960  121.0570 H   0  0  0  0  0  0  0  0  0  0  0  0
  136.7803  126.8770  123.2970 H   0  0  0  0  0  0  0  0  0  0  0  0
  134.7006  126.6963  124.6528 H   0  0  0  0  0  0  0  0  0  0  0  0
  131.5693  125.8515  123.4452 H   0  0  0  0  0  0  0  0  0  0  0  0
  132.2513  124.3121  124.1970 H   0  0  0  0  0  0  0  0  0  0  0  0
  132.3688  125.2574  126.1538 H   0  0  0  0  0  0  0  0  0  0  0  0
  133.3961  126.6034  125.4283 H   0  0  0  0  0  0  0  0  0  0  0  0
  131.5640  127.8490  125.0330 H   0  0  0  0  0  0  0  0  0  0  0  0
  131.3402  126.8803  127.8014 H   0  0  0  0  0  0  0  0  0  0  0  0
  132.3741  128.2071  127.1711 H   0  0  0  0  0  0  0  0  0  0  0  0
  130.5866  128.3841  127.1711 H   0  0  0  0  0  0  0  0  0  0  0  0
  130.0231  125.6302  124.8211 H   0  0  0  0  0  0  0  0  0  0  0  0
  129.3440  126.6177  126.1872 H   0  0  0  0  0  0  0  0  0  0  0  0
  130.7876  129.1467  124.5889 H   0  0  0  0  0  0  0  0  0  0  0  0
  129.7525  130.6808  122.9211 H   0  0  0  0  0  0  0  0  0  0  0  0
  127.7085  129.9813  121.6797 H   0  0  0  0  0  0  0  0  0  0  0  0
  126.6830  127.7523  122.1176 H   0  0  0  0  0  0  0  0  0  0  0  0
  127.7098  126.2107  123.7854 H   0  0  0  0  0  0  0  0  0  0  0  0
  132.8463  124.3901  121.4961 H   0  0  0  0  0  0  0  0  0  0  0  0
  1  2  1  0
  2  3  1  0
  3  4  2  0
  3  5  1  0
  5  6  1  0
  6  7  2  0
  7  8  1  0
  8  9  2  0
  9 10  1  0
 10 11  1  0
 11 12  1  0
 12 13  1  0
 12 14  1  0
 14 15  1  0
 15 16  2  0
 16 17  1  0
 17 18  2  0
 18 19  1  0
 19 20  2  0
  9 21  1  0
 21  5  2  0
 20 15  1  0
  1 22  1  0
  1 23  1  0
  1 24  1  0
  6 25  1  0
  7 26  1  0
  8 27  1  0
 10 28  1  0
 10 29  1  0
 11 30  1  0
 11 31  1  0
 12 32  1  6
 13 33  1  0
 13 34  1  0
 13 35  1  0
 14 36  1  0
 14 37  1  0
 16 38  1  0
 17 39  1  0
 18 40  1  0
 19 41  1  0
 20 42  1  0
 21 43  1  0
M  CHG  1  12   1
M  END
>  <meeko>  (15) 
{"is_sidechain": [false], "free_energy": -6.209, "intermolecular_energy": -10.671, "internal_energy": -0.6}

$$$$
seed-5303
     RDKit          3D

 43 44  0  0  0  0  0  0  0  0999 V2000
  131.5530  128.6580  128.8930 C   0  0  0  0  0  0  0  0  0  0  0  0
  131.3360  128.4240  127.4990 O   0  0  0  0  0  0  0  0  0  0  0  0
  130.0560  128.0890  127.1960 C   0  0  0  0  0  0  0  0  0  0  0  0
  129.1740  128.8590  126.8540 O   0  0  0  0  0  0  0  0  0  0  0  0
  129.8470  126.6240  127.3620 C   0  0  0  0  0  0  0  0  0  0  0  0
  128.7210  126.1960  128.0750 C   0  0  0  0  0  0  0  0  0  0  0  0
  128.4750  124.8340  128.2470 C   0  0  0  0  0  0  0  0  0  0  0  0
  129.3580  123.8900  127.7230 C   0  0  0  0  0  0  0  0  0  0  0  0
  130.5060  124.2960  127.0260 C   0  0  0  0  0  0  0  0  0  0  0  0
  131.4600  123.2710  126.4660 C   0  0  0  0  0  0  0  0  0  0  0  0
  132.8940  123.7630  126.2170 C   0  0  0  0  0  0  0  0  0  0  0  0
  133.2850  123.9200  124.7610 N   0  0  2  0  0  0  0  0  0  0  0  0
  132.1540  123.7090  123.7940 C   0  0  0  0  0  0  0  0  0  0  0  0
  134.5500  123.1840  124.3630 C   0  0  0  0  0  0  0  0  0  0  0  0
  135.1410  123.7160  123.0830 C   0  0  0  0  0  0  0  0  0  0  0  0
  135.5580  125.0520  122.9910 C   0  0  0  0  0  0  0  0  0  0  0  0
  136.1350  125.5330  121.8150 C   0  0  0  0  0  0  0  0  0  0  0  0
  136.2980  124.6870  120.7210 C   0  0  0  0  0  0  0  0  0  0  0  0
  135.8820  123.3600  120.7980 C   0  0  0  0  0  0  0  0  0  0  0  0
  135.3060  122.8740  121.9720 C   0  0  0  0  0  0  0  0  0  0  0  0
  130.7310  125.6700  126.8340 C   0  0  0  0  0  0  0  0  0  0  0  0
  130.9212  127.9767  129.4819 H   0  0  0  0  0  0  0  0  0  0  0  0
  132.6109  128.4780  129.1347 H   0  0  0  0  0  0  0  0  0  0  0  0
  131.2938  129.6993  129.1347 H   0  0  0  0  0  0  0  0  0  0  0  0
  128.0279  126.9363  128.5010 H   0  0  0  0  0  0  0  0  0  0  0  0
  127.5820  124.5033  128.7975 H   0  0  0  0  0  0  0  0  0  0  0  0
  129.1525  122.8177  127.8574 H   0  0  0  0  0  0  0  0  0  0  0  0
  131.5089  122.4315  127.1751 H   0  0  0  0  0  0  0  0  0  0  0  0
  131.0607  122.9972  125.4783 H   0  0  0  0  0  0  0  0  0  0  0  0
  133.0063  124.7420  126.7058 H   0  0  0  0  0  0  0  0  0  0  0  0
  133.5560  122.9855  126.6259 H   0  0  0  0  0  0  0  0  0  0  0  0
  133.5320  124.9120  124.6620 H   0  0  0  0  0  0  0  0  0  0  0  0
  131.2221  123.5351  124.3520 H   0  0  0  0  0  0  0  0  0  0  0  0
  132.0413  124.6016  123.1611 H   0  0  0  0  0  0  0  0  0  0  0  0
  132.3708  122.8358  123.1611 H   0  0  0  0  0  0  0  0  0  0  0  0
  135.2917  123.2940  125.1679 H   0  0  0  0  0  0  0  0  0  0  0  0
  134.2885  122.1280  124.2002 H   0  0  0  0  0  0  0  0  0  0  0  0
  135.4294  125.7250  123.8515 H   0  0  0  0  0  0  0  0  0  0  0  0
  136.4614  126.5816  121.7521 H   0  0  0  0  0  0  0  0  0  0  0  0
  136.7555  125.0669  119.7956 H   0  0  0  0  0  0  0  0  0  0  0  0
  136.0078  122.6940  119.9316 H   0  0  0  0  0  0  0  0  0  0  0  0
  134.9793  121.8251  122.0274 H   0  0  0  0  0  0  0  0  0  0  0  0
  131.6107  126.0018  126.2630 H   0  0  0  0  0  0  0  0  0  0  0  0
  1  2  1  0
  2  3  1  0
  3  4  2  0
  3  5  1  0
  5  6  1  0
  6  7  2  0
  7  8  1  0
  8  9  2  0
  9 10  1  0
 10 11  1  0
 11 12  1  0
 12 13  1  0
 12 14  1  0
 14 15  1  0
 15 16  2  0
 16 17  1  0
 17 18  2  0
 18 19  1  0
 19 20  2  0
  9 21  1  0
 21  5  2  0
 20 15  1  0
  1 22  1  0
  1 23  1  0
  1 24  1  0
  6 25  1  0
  7 26  1  0
  8 27  1  0
 10 28  1  0
 10 29  1  0
 11 30  1  0
 11 31  1  0
 12 32  1  1
 13 33  1  0
 13 34  1  0
 13 35  1  0
 14 36  1  0
 14 37  1  0
 16 38  1  0
 17 39  1  0
 18 40  1  0
 19 41  1  0
 20 42  1  0
 21 43  1  0
M  CHG  1  12   1
M  END
>  <meeko>  (16) 
{"is_sidechain": [false], "free_energy": -6.205, "intermolecular_energy": -10.699, "internal_energy": -0.566}

$$$$
seed-5303
     RDKit          3D

 43 44  0  0  0  0  0  0  0  0999 V2000
  127.1030  124.8040  129.8800 C   0  0  0  0  0  0  0  0  0  0  0  0
  127.8800  125.1860  128.7410 O   0  0  0  0  0  0  0  0  0  0  0  0
  128.5250  124.1490  128.1490 C   0  0  0  0  0  0  0  0  0  0  0  0
  128.2050  122.9740  128.2140 O   0  0  0  0  0  0  0  0  0  0  0  0
  129.7240  124.6340  127.4110 C   0  0  0  0  0  0  0  0  0  0  0  0
  130.0850  125.9800  127.5500 C   0  0  0  0  0  0  0  0  0  0  0  0
  131.2070  126.4780  126.8880 C   0  0  0  0  0  0  0  0  0  0  0  0
  131.9680  125.6420  126.0710 C   0  0  0  0  0  0  0  0  0  0  0  0
  131.6110  124.2970  125.8980 C   0  0  0  0  0  0  0  0  0  0  0  0
  132.4350  123.3980  125.0090 C   0  0  0  0  0  0  0  0  0  0  0  0
  133.9560  123.6150  125.0710 C   0  0  0  0  0  0  0  0  0  0  0  0
  134.7610  122.8740  124.0230 N   0  0  2  0  0  0  0  0  0  0  0  0
  135.3400  121.5710  124.4980 C   0  0  0  0  0  0  0  0  0  0  0  0
  135.7640  123.7300  123.2740 C   0  0  0  0  0  0  0  0  0  0  0  0
  135.2770  124.1120  121.9000 C   0  0  0  0  0  0  0  0  0  0  0  0
  134.3390  125.1410  121.7370 C   0  0  0  0  0  0  0  0  0  0  0  0
  133.9130  125.5130  120.4610 C   0  0  0  0  0  0  0  0  0  0  0  0
  134.4180  124.8610  119.3390 C   0  0  0  0  0  0  0  0  0  0  0  0
  135.3460  123.8330  119.4880 C   0  0  0  0  0  0  0  0  0  0  0  0
  135.7750  123.4570  120.7630 C   0  0  0  0  0  0  0  0  0  0  0  0
  130.4950  123.7960  126.5900 C   0  0  0  0  0  0  0  0  0  0  0  0
  127.6448  125.0704  130.7995 H   0  0  0  0  0  0  0  0  0  0  0  0
  126.1371  125.3300  129.8581 H   0  0  0  0  0  0  0  0  0  0  0  0
  126.9297  123.7180  129.8581 H   0  0  0  0  0  0  0  0  0  0  0  0
  129.4815  126.6467  128.1835 H   0  0  0  0  0  0  0  0  0  0  0  0
  131.4926  127.5332  127.0105 H   0  0  0  0  0  0  0  0  0  0  0  0
  132.8555  126.0411  125.5581 H   0  0  0  0  0  0  0  0  0  0  0  0
  132.2297  122.3565  125.2975 H   0  0  0  0  0  0  0  0  0  0  0  0
  132.1383  123.6408  123.9780 H   0  0  0  0  0  0  0  0  0  0  0  0
  134.1506  124.6909  124.9504 H   0  0  0  0  0  0  0  0  0  0  0  0
  134.2803  123.2135  126.0424 H   0  0  0  0  0  0  0  0  0  0  0  0
  134.0750  122.6090  123.3050 H   0  0  0  0  0  0  0  0  0  0  0  0
  135.3482  121.5526  125.5978 H   0  0  0  0  0  0  0  0  0  0  0  0
  134.7270  120.7386  124.1219 H   0  0  0  0  0  0  0  0  0  0  0  0
  136.3686  121.4680  124.1219 H   0  0  0  0  0  0  0  0  0  0  0  0
  135.9473  124.6477  123.8521 H   0  0  0  0  0  0  0  0  0  0  0  0
  136.6850  123.1408  123.1527 H   0  0  0  0  0  0  0  0  0  0  0  0
  133.9363  125.6584  122.6202 H   0  0  0  0  0  0  0  0  0  0  0  0
  133.1775  126.3222  120.3415 H   0  0  0  0  0  0  0  0  0  0  0  0
  134.0837  125.1581  118.3340 H   0  0  0  0  0  0  0  0  0  0  0  0
  135.7414  123.3168  118.6008 H   0  0  0  0  0  0  0  0  0  0  0  0
  136.5067  122.6436  120.8765 H   0  0  0  0  0  0  0  0  0  0  0  0
  130.2226  122.7352  126.4871 H   0  0  0  0  0  0  0  0  0  0  0  0
  1  2  1  0
  2  3  1  0
  3  4  2  0
  3  5  1  0
  5  6  1  0
  6  7  2  0
  7  8  1  0
  8  9  2  0
  9 10  1  0
 10 11  1  0
 11 12  1  0
 12 13  1  0
 12 14  1  0
 14 15  1  0
 15 16  2  0
 16 17  1  0
 17 18  2  0
 18 19  1  0
 19 20  2  0
  9 21  1  0
 21  5  2  0
 20 15  1  0
  1 22  1  0
  1 23  1  0
  1 24  1  0
  6 25  1  0
  7 26  1  0
  8 27  1  0
 10 28  1  0
 10 29  1  0
 11 30  1  0
 11 31  1  0
 12 32  1  6
 13 33  1  0
 13 34  1  0
 13 35  1  0
 14 36  1  0
 14 37  1  0
 16 38  1  0
 17 39  1  0
 18 40  1  0
 19 41  1  0
 20 42  1  0
 21 43  1  0
M  CHG  1  12   1
M  END
>  <meeko>  (17) 
{"is_sidechain": [false], "free_energy": -6.123, "intermolecular_energy": -10.616, "internal_energy": -0.533}

$$$$
seed-5303
     RDKit          3D

 43 44  0  0  0  0  0  0  0  0999 V2000
  130.5240  126.0400  127.0740 C   0  0  0  0  0  0  0  0  0  0  0  0
  131.2600  126.1670  125.8540 O   0  0  0  0  0  0  0  0  0  0  0  0
  131.1990  125.0650  125.0650 C   0  0  0  0  0  0  0  0  0  0  0  0
  130.5200  124.0720  125.2680 O   0  0  0  0  0  0  0  0  0  0  0  0
  132.1120  125.2090  123.8970 C   0  0  0  0  0  0  0  0  0  0  0  0
  131.7030  124.6730  122.6700 C   0  0  0  0  0  0  0  0  0  0  0  0
  132.5170  124.7940  121.5440 C   0  0  0  0  0  0  0  0  0  0  0  0
  133.7510  125.4370  121.6370 C   0  0  0  0  0  0  0  0  0  0  0  0
  134.1920  125.9610  122.8610 C   0  0  0  0  0  0  0  0  0  0  0  0
  135.5290  126.6520  122.9560 C   0  0  0  0  0  0  0  0  0  0  0  0
  135.9990  126.9990  124.3770 C   0  0  0  0  0  0  0  0  0  0  0  0
  136.7530  125.8990  125.0990 N   0  0  2  0  0  0  0  0  0  0  0  0
  138.0900  126.3220  125.6410 C   0  0  0  0  0  0  0  0  0  0  0  0
  136.8050  124.5760  124.3590 C   0  0  0  0  0  0  0  0  0  0  0  0
  135.9620  123.5180  125.0220 C   0  0  0  0  0  0  0  0  0  0  0  0
  135.7800  122.2670  124.4150 C   0  0  0  0  0  0  0  0  0  0  0  0
  135.0240  121.2790  125.0470 C   0  0  0  0  0  0  0  0  0  0  0  0
  134.4430  121.5300  126.2870 C   0  0  0  0  0  0  0  0  0  0  0  0
  134.6120  122.7710  126.8980 C   0  0  0  0  0  0  0  0  0  0  0  0
  135.3670  123.7630  126.2700 C   0  0  0  0  0  0  0  0  0  0  0  0
  133.3530  125.8590  123.9840 C   0  0  0  0  0  0  0  0  0  0  0  0
  131.2070  126.1579  127.9282 H   0  0  0  0  0  0  0  0  0  0  0  0
  129.7468  126.8173  127.1160 H   0  0  0  0  0  0  0  0  0  0  0  0
  130.0523  125.0472  127.1160 H   0  0  0  0  0  0  0  0  0  0  0  0
  130.7359  124.1544  122.5938 H   0  0  0  0  0  0  0  0  0  0  0  0
  132.1848  124.3812  120.5800 H   0  0  0  0  0  0  0  0  0  0  0  0
  134.3840  125.5341  120.7426 H   0  0  0  0  0  0  0  0  0  0  0  0
  136.2834  125.9927  122.5019 H   0  0  0  0  0  0  0  0  0  0  0  0
  135.4074  127.6140  122.4366 H   0  0  0  0  0  0  0  0  0  0  0  0
  136.6591  127.8765  124.3114 H   0  0  0  0  0  0  0  0  0  0  0  0
  135.0856  127.1762  124.9638 H   0  0  0  0  0  0  0  0  0  0  0  0
  136.1860  125.6970  125.9320 H   0  0  0  0  0  0  0  0  0  0  0  0
  138.0596  126.3124  126.7405 H   0  0  0  0  0  0  0  0  0  0  0  0
  138.8652  125.6252  125.2895 H   0  0  0  0  0  0  0  0  0  0  0  0
  138.3234  127.3379  125.2895 H   0  0  0  0  0  0  0  0  0  0  0  0
  136.4383  124.7295  123.3333 H   0  0  0  0  0  0  0  0  0  0  0  0
  137.8484  124.2277  124.3640 H   0  0  0  0  0  0  0  0  0  0  0  0
  136.2359  122.0634  123.4349 H   0  0  0  0  0  0  0  0  0  0  0  0
  134.8869  120.3000  124.5646 H   0  0  0  0  0  0  0  0  0  0  0  0
  133.8502  120.7484  126.7847 H   0  0  0  0  0  0  0  0  0  0  0  0
  134.1499  122.9691  127.8764 H   0  0  0  0  0  0  0  0  0  0  0  0
  135.4965  124.7416  126.7553 H   0  0  0  0  0  0  0  0  0  0  0  0
  133.6727  126.2938  124.9425 H   0  0  0  0  0  0  0  0  0  0  0  0
  1  2  1  0
  2  3  1  0
  3  4  2  0
  3  5  1  0
  5  6  1  0
  6  7  2  0
  7  8  1  0
  8  9  2  0
  9 10  1  0
 10 11  1  0
 11 12  1  0
 12 13  1  0
 12 14  1  0
 14 15  1  0
 15 16  2  0
 16 17  1  0
 17 18  2  0
 18 19  1  0
 19 20  2  0
  9 21  1  0
 21  5  2  0
 20 15  1  0
  1 22  1  0
  1 23  1  0
  1 24  1  0
  6 25  1  0
  7 26  1  0
  8 27  1  0
 10 28  1  0
 10 29  1  0
 11 30  1  0
 11 31  1  0
 12 32  1  1
 13 33  1  0
 13 34  1  0
 13 35  1  0
 14 36  1  0
 14 37  1  0
 16 38  1  0
 17 39  1  0
 18 40  1  0
 19 41  1  0
 20 42  1  0
 21 43  1  0
M  CHG  1  12   1
M  END
>  <meeko>  (18) 
{"is_sidechain": [false], "free_energy": -6.105, "intermolecular_energy": -9.934, "internal_energy": -1.189}

$$$$
seed-5303
     RDKit          3D

 43 44  0  0  0  0  0  0  0  0999 V2000
  127.0960  123.9600  129.3570 C   0  0  0  0  0  0  0  0  0  0  0  0
  127.6440  124.6710  128.2430 O   0  0  0  0  0  0  0  0  0  0  0  0
  128.8870  124.2570  127.8910 C   0  0  0  0  0  0  0  0  0  0  0  0
  129.2630  123.0990  127.8130 O   0  0  0  0  0  0  0  0  0  0  0  0
  129.7710  125.4260  127.6290 C   0  0  0  0  0  0  0  0  0  0  0  0
  129.5830  126.5810  128.3990 C   0  0  0  0  0  0  0  0  0  0  0  0
  130.3950  127.6970  128.2000 C   0  0  0  0  0  0  0  0  0  0  0  0
  131.3890  127.6760  127.2220 C   0  0  0  0  0  0  0  0  0  0  0  0
  131.5790  126.5400  126.4220 C   0  0  0  0  0  0  0  0  0  0  0  0
  132.6530  126.5240  125.3630 C   0  0  0  0  0  0  0  0  0  0  0  0
  132.4760  125.4770  124.2520 C   0  0  0  0  0  0  0  0  0  0  0  0
  133.7370  125.1170  123.4910 N   0  0  2  0  0  0  0  0  0  0  0  0
  134.0550  126.0430  122.3520 C   0  0  0  0  0  0  0  0  0  0  0  0
  133.8510  123.6520  123.1140 C   0  0  0  0  0  0  0  0  0  0  0  0
  134.5120  122.8340  124.1930 C   0  0  0  0  0  0  0  0  0  0  0  0
  133.7560  122.2920  125.2420 C   0  0  0  0  0  0  0  0  0  0  0  0
  134.3680  121.5090  126.2220 C   0  0  0  0  0  0  0  0  0  0  0  0
  135.7370  121.2620  126.1640 C   0  0  0  0  0  0  0  0  0  0  0  0
  136.5000  121.8000  125.1300 C   0  0  0  0  0  0  0  0  0  0  0  0
  135.8930  122.5830  124.1480 C   0  0  0  0  0  0  0  0  0  0  0  0
  130.7760  125.4090  126.6490 C   0  0  0  0  0  0  0  0  0  0  0  0
  127.4485  124.4174  130.2932 H   0  0  0  0  0  0  0  0  0  0  0  0
  125.9977  124.0063  129.3171 H   0  0  0  0  0  0  0  0  0  0  0  0
  127.4204  122.9097  129.3171 H   0  0  0  0  0  0  0  0  0  0  0  0
  128.7922  126.6077  129.1632 H   0  0  0  0  0  0  0  0  0  0  0  0
  130.2511  128.5967  128.8163 H   0  0  0  0  0  0  0  0  0  0  0  0
  132.0297  128.5583  127.0768 H   0  0  0  0  0  0  0  0  0  0  0  0
  132.6773  127.5173  124.8909 H   0  0  0  0  0  0  0  0  0  0  0  0
  133.5841  126.2553  125.8834 H   0  0  0  0  0  0  0  0  0  0  0  0
  132.0827  124.5581  124.7112 H   0  0  0  0  0  0  0  0  0  0  0  0
  131.7958  125.9290  123.5151 H   0  0  0  0  0  0  0  0  0  0  0  0
  134.4990  125.2600  124.1660 H   0  0  0  0  0  0  0  0  0  0  0  0
  134.3881  127.0129  122.7500 H   0  0  0  0  0  0  0  0  0  0  0  0
  134.8544  125.6054  121.7359 H   0  0  0  0  0  0  0  0  0  0  0  0
  133.1555  126.1889  121.7359 H   0  0  0  0  0  0  0  0  0  0  0  0
  132.8415  123.2529  122.9358 H   0  0  0  0  0  0  0  0  0  0  0  0
  134.4748  123.5844  122.2105 H   0  0  0  0  0  0  0  0  0  0  0  0
  132.6743  122.4850  125.2929 H   0  0  0  0  0  0  0  0  0  0  0  0
  133.7679  121.0864  127.0413 H   0  0  0  0  0  0  0  0  0  0  0  0
  136.2166  120.6415  126.9353 H   0  0  0  0  0  0  0  0  0  0  0  0
  137.5821  121.6072  125.0879 H   0  0  0  0  0  0  0  0  0  0  0  0
  136.4995  123.0063  123.3338 H   0  0  0  0  0  0  0  0  0  0  0  0
  130.9370  124.4995  126.0515 H   0  0  0  0  0  0  0  0  0  0  0  0
  1  2  1  0
  2  3  1  0
  3  4  2  0
  3  5  1  0
  5  6  1  0
  6  7  2  0
  7  8  1  0
  8  9  2  0
  9 10  1  0
 10 11  1  0
 11 12  1  0
 12 13  1  0
 12 14  1  0
 14 15  1  0
 15 16  2  0
 16 17  1  0
 17 18  2  0
 18 19  1  0
 19 20  2  0
  9 21  1  0
 21  5  2  0
 20 15  1  0
  1 22  1  0
  1 23  1  0
  1 24  1  0
  6 25  1  0
  7 26  1  0
  8 27  1  0
 10 28  1  0
 10 29  1  0
 11 30  1  0
 11 31  1  0
 12 32  1  1
 13 33  1  0
 13 34  1  0
 13 35  1  0
 14 36  1  0
 14 37  1  0
 16 38  1  0
 17 39  1  0
 18 40  1  0
 19 41  1  0
 20 42  1  0
 21 43  1  0
M  CHG  1  12   1
M  END
>  <meeko>  (19) 
{"is_sidechain": [false], "free_energy": -6.035, "intermolecular_energy": -10.422, "internal_energy": -0.604}

$$$$
seed-5303
     RDKit          3D

 43 44  0  0  0  0  0  0  0  0999 V2000
  136.5400  125.5770  123.9950 C   0  0  0  0  0  0  0  0  0  0  0  0
  136.7920  124.1800  124.1740 O   0  0  0  0  0  0  0  0  0  0  0  0
  135.9950  123.3820  123.4200 C   0  0  0  0  0  0  0  0  0  0  0  0
  136.0740  123.2220  122.2130 O   0  0  0  0  0  0  0  0  0  0  0  0
  134.9620  122.7250  124.2690 C   0  0  0  0  0  0  0  0  0  0  0  0
  135.3010  121.5280  124.9120 C   0  0  0  0  0  0  0  0  0  0  0  0
  134.3720  120.8830  125.7270 C   0  0  0  0  0  0  0  0  0  0  0  0
  133.0950  121.4170  125.8960 C   0  0  0  0  0  0  0  0  0  0  0  0
  132.7260  122.6020  125.2430 C   0  0  0  0  0  0  0  0  0  0  0  0
  131.3420  123.1730  125.4250 C   0  0  0  0  0  0  0  0  0  0  0  0
  131.2800  124.6600  125.8050 C   0  0  0  0  0  0  0  0  0  0  0  0
  130.5620  125.5560  124.8160 N   0  0  2  0  0  0  0  0  0  0  0  0
  131.4730  126.2630  123.8520 C   0  0  0  0  0  0  0  0  0  0  0  0
  129.5220  126.4720  125.4310 C   0  0  0  0  0  0  0  0  0  0  0  0
  129.9570  127.0130  126.7680 C   0  0  0  0  0  0  0  0  0  0  0  0
  129.3110  126.6110  127.9450 C   0  0  0  0  0  0  0  0  0  0  0  0
  129.7370  127.0900  129.1850 C   0  0  0  0  0  0  0  0  0  0  0  0
  130.8100  127.9740  129.2600 C   0  0  0  0  0  0  0  0  0  0  0  0
  131.4570  128.3860  128.0970 C   0  0  0  0  0  0  0  0  0  0  0  0
  131.0340  127.9100  126.8550 C   0  0  0  0  0  0  0  0  0  0  0  0
  133.6760  123.2610  124.4450 C   0  0  0  0  0  0  0  0  0  0  0  0
  136.4524  126.0627  124.9781 H   0  0  0  0  0  0  0  0  0  0  0  0
  137.3708  126.0306  123.4347 H   0  0  0  0  0  0  0  0  0  0  0  0
  135.6030  125.7117  123.4347 H   0  0  0  0  0  0  0  0  0  0  0  0
  136.3029  121.0956  124.7736 H   0  0  0  0  0  0  0  0  0  0  0  0
  134.6474  119.9491  126.2388 H   0  0  0  0  0  0  0  0  0  0  0  0
  132.3712  120.9046  126.5468 H   0  0  0  0  0  0  0  0  0  0  0  0
  130.7955  123.0427  124.4793 H   0  0  0  0  0  0  0  0  0  0  0  0
  130.9018  122.6280  126.2731 H   0  0  0  0  0  0  0  0  0  0  0  0
  130.7638  124.7413  126.7729 H   0  0  0  0  0  0  0  0  0  0  0  0
  132.3226  125.0098  125.8282 H   0  0  0  0  0  0  0  0  0  0  0  0
  130.0130  124.9120  124.2320 H   0  0  0  0  0  0  0  0  0  0  0  0
  132.2207  126.8433  124.4125 H   0  0  0  0  0  0  0  0  0  0  0  0
  131.9832  125.5220  123.2190 H   0  0  0  0  0  0  0  0  0  0  0  0
  130.8819  126.9411  123.2190 H   0  0  0  0  0  0  0  0  0  0  0  0
  129.3456  127.3161  124.7481 H   0  0  0  0  0  0  0  0  0  0  0  0
  128.6055  125.8841  125.5874 H   0  0  0  0  0  0  0  0  0  0  0  0
  128.4624  125.9132  127.8913 H   0  0  0  0  0  0  0  0  0  0  0  0
  129.2245  126.7687  130.1037 H   0  0  0  0  0  0  0  0  0  0  0  0
  131.1471  128.3474  130.2382 H   0  0  0  0  0  0  0  0  0  0  0  0
  132.3023  129.0873  128.1577 H   0  0  0  0  0  0  0  0  0  0  0  0
  131.5470  128.2393  125.9394 H   0  0  0  0  0  0  0  0  0  0  0  0
  133.4095  124.2077  123.9524 H   0  0  0  0  0  0  0  0  0  0  0  0
  1  2  1  0
  2  3  1  0
  3  4  2  0
  3  5  1  0
  5  6  1  0
  6  7  2  0
  7  8  1  0
  8  9  2  0
  9 10  1  0
 10 11  1  0
 11 12  1  0
 12 13  1  0
 12 14  1  0
 14 15  1  0
 15 16  2  0
 16 17  1  0
 17 18  2  0
 18 19  1  0
 19 20  2  0
  9 21  1  0
 21  5  2  0
 20 15  1  0
  1 22  1  0
  1 23  1  0
  1 24  1  0
  6 25  1  0
  7 26  1  0
  8 27  1  0
 10 28  1  0
 10 29  1  0
 11 30  1  0
 11 31  1  0
 12 32  1  6
 13 33  1  0
 13 34  1  0
 13 35  1  0
 14 36  1  0
 14 37  1  0
 16 38  1  0
 17 39  1  0
 18 40  1  0
 19 41  1  0
 20 42  1  0
 21 43  1  0
M  CHG  1  12   1
M  END
>  <meeko>  (20) 
{"is_sidechain": [false], "free_energy": -6.01, "intermolecular_energy": -10.604, "internal_energy": -0.385}

$$$$
