seed-5302
     RDKit          3D

 43 44  0  0  0  0  0  0  0  0999 V2000
  135.0680  123.2410  118.1130 C   0  0  0  0  0  0  0  0  0  0  0  0
  135.6080  123.4430  119.4220 O   0  0  0  0  0  0  0  0  0  0  0  0
  135.2140  124.6060  119.9990 C   0  0  0  0  0  0  0  0  0  0  0  0
  134.6570  125.5350  119.4360 O   0  0  0  0  0  0  0  0  0  0  0  0
  135.5810  124.6220  121.4420 C   0  0  0  0  0  0  0  0  0  0  0  0
  135.7550  125.8650  122.0650 C   0  0  0  0  0  0  0  0  0  0  0  0
  136.0860  125.9320  123.4180 C   0  0  0  0  0  0  0  0  0  0  0  0
  136.2600  124.7610  124.1560 C   0  0  0  0  0  0  0  0  0  0  0  0
  136.1140  123.5060  123.5480 C   0  0  0  0  0  0  0  0  0  0  0  0
  136.3080  122.2440  124.3510 C   0  0  0  0  0  0  0  0  0  0  0  0
  135.0230  121.4860  124.7200 C   0  0  0  0  0  0  0  0  0  0  0  0
  134.1800  122.1250  125.8050 N   0  0  2  0  0  0  0  0  0  0  0  0
  134.3280  121.4840  127.1560 C   0  0  0  0  0  0  0  0  0  0  0  0
  132.7340  122.3720  125.4200 C   0  0  0  0  0  0  0  0  0  0  0  0
  132.5560  123.6660  124.6720 C   0  0  0  0  0  0  0  0  0  0  0  0
  132.7100  124.8970  125.3270 C   0  0  0  0  0  0  0  0  0  0  0  0
  132.5740  126.0940  124.6230 C   0  0  0  0  0  0  0  0  0  0  0  0
  132.2840  126.0740  123.2610 C   0  0  0  0  0  0  0  0  0  0  0  0
  132.1230  124.8580  122.6000 C   0  0  0  0  0  0  0  0  0  0  0  0
  132.2570  123.6580  123.3000 C   0  0  0  0  0  0  0  0  0  0  0  0
  135.7540  123.4480  122.1910 C   0  0  0  0  0  0  0  0  0  0  0  0
  134.0406  122.8567  118.1955 H   0  0  0  0  0  0  0  0  0  0  0  0
  135.0594  124.1967  117.5684 H   0  0  0  0  0  0  0  0  0  0  0  0
  135.6887  122.5143  117.5684 H   0  0  0  0  0  0  0  0  0  0  0  0
  135.6301  126.7911  121.4848 H   0  0  0  0  0  0  0  0  0  0  0  0
  136.2102  126.9107  123.9046 H   0  0  0  0  0  0  0  0  0  0  0  0
  136.5140  124.8228  125.2245 H   0  0  0  0  0  0  0  0  0  0  0  0
  136.9448  121.5649  123.7651 H   0  0  0  0  0  0  0  0  0  0  0  0
  136.7543  122.5608  125.3052 H   0  0  0  0  0  0  0  0  0  0  0  0
  134.4049  121.4047  123.8137 H   0  0  0  0  0  0  0  0  0  0  0  0
  135.3487  120.5151  125.1217 H   0  0  0  0  0  0  0  0  0  0  0  0
  134.5720  123.0680  125.9190 H   0  0  0  0  0  0  0  0  0  0  0  0
  134.1543  122.2361  127.9397 H   0  0  0  0  0  0  0  0  0  0  0  0
  133.5939  120.6713  127.2586 H   0  0  0  0  0  0  0  0  0  0  0  0
  135.3441  121.0754  127.2586 H   0  0  0  0  0  0  0  0  0  0  0  0
  132.3913  121.5442  124.7817 H   0  0  0  0  0  0  0  0  0  0  0  0
  132.1446  122.4347  126.3467 H   0  0  0  0  0  0  0  0  0  0  0  0
  132.9395  124.9187  126.4026 H   0  0  0  0  0  0  0  0  0  0  0  0
  132.6960  127.0548  125.1445 H   0  0  0  0  0  0  0  0  0  0  0  0
  132.1820  127.0187  122.7068 H   0  0  0  0  0  0  0  0  0  0  0  0
  131.8900  124.8438  121.5251 H   0  0  0  0  0  0  0  0  0  0  0  0
  132.1277  122.7006  122.7740 H   0  0  0  0  0  0  0  0  0  0  0  0
  135.6059  122.4700  121.7097 H   0  0  0  0  0  0  0  0  0  0  0  0
  1  2  1  0
  2  3  1  0
  3  4  2  0
  3  5  1  0
  5  6  1  0
  6  7  2  0
  7  8  1  0
  8  9  2  0
  9 10  1  0
 10 11  1  0
 11 12  1  0
 12 13  1  0
 12 14  1  0
 14 15  1  0
 15 16  2  0
 16 17  1  0
 17 18  2  0
 18 19  1  0
 19 20  2  0
  9 21  1  0
 21  5  2  0
 20 15  1  0
  1 22  1  0
  1 23  1  0
  1 24  1  0
  6 25  1  0
  7 26  1  0
  8 27  1  0
 10 28  1  0
 10 29  1  0
 11 30  1  0
 11 31  1  0
 12 32  1  1
 13 33  1  0
 13 34  1  0
 13 35  1  0
 14 36  1  0
 14 37  1  0
 16 38  1  0
 17 39  1  0
 18 40  1  0
 19 41  1  0
 20 42  1  0
 21 43  1  0
M  CHG  1  12   1
M  END
>  <meeko>  (1) 
{"is_sidechain": [false], "free_energy": -7.329, "intermolecular_energy": -10.328, "internal_energy": -2.506}

$$$$
seed-5302
     RDKit          3D

 43 44  0  0  0  0  0  0  0  0999 V2000
  131.3010  128.1650  127.9700 C   0  0  0  0  0  0  0  0  0  0  0  0
  131.5840  127.2960  126.8690 O   0  0  0  0  0  0  0  0  0  0  0  0
  130.8950  126.1290  126.9050 C   0  0  0  0  0  0  0  0  0  0  0  0
  130.0510  125.8180  127.7300 O   0  0  0  0  0  0  0  0  0  0  0  0
  131.3260  125.2330  125.7970 C   0  0  0  0  0  0  0  0  0  0  0  0
  131.2090  123.8500  125.9820 C   0  0  0  0  0  0  0  0  0  0  0  0
  131.5880  122.9710  124.9680 C   0  0  0  0  0  0  0  0  0  0  0  0
  132.1000  123.4640  123.7680 C   0  0  0  0  0  0  0  0  0  0  0  0
  132.2490  124.8440  123.5690 C   0  0  0  0  0  0  0  0  0  0  0  0
  132.8090  125.3710  122.2710 C   0  0  0  0  0  0  0  0  0  0  0  0
  134.1860  124.8220  121.8680 C   0  0  0  0  0  0  0  0  0  0  0  0
  135.2830  124.9950  122.9000 N   0  0  2  0  0  0  0  0  0  0  0  0
  136.1650  126.1890  122.6670 C   0  0  0  0  0  0  0  0  0  0  0  0
  136.0630  123.7320  123.2120 C   0  0  0  0  0  0  0  0  0  0  0  0
  135.5810  123.0590  124.4700 C   0  0  0  0  0  0  0  0  0  0  0  0
  135.3290  123.8080  125.6290 C   0  0  0  0  0  0  0  0  0  0  0  0
  134.8520  123.1850  126.7830 C   0  0  0  0  0  0  0  0  0  0  0  0
  134.6240  121.8110  126.7920 C   0  0  0  0  0  0  0  0  0  0  0  0
  134.8760  121.0550  125.6490 C   0  0  0  0  0  0  0  0  0  0  0  0
  135.3530  121.6740  124.4920 C   0  0  0  0  0  0  0  0  0  0  0  0
  131.8390  125.7240  124.5850 C   0  0  0  0  0  0  0  0  0  0  0  0
  131.4756  127.6289  128.9145 H   0  0  0  0  0  0  0  0  0  0  0  0
  131.9589  129.0452  127.9209 H   0  0  0  0  0  0  0  0  0  0  0  0
  130.2509  128.4889  127.9209 H   0  0  0  0  0  0  0  0  0  0  0  0
  130.8166  123.4554  126.9309 H   0  0  0  0  0  0  0  0  0  0  0  0
  131.4829  121.8859  125.1149 H   0  0  0  0  0  0  0  0  0  0  0  0
  132.3896  122.7639  122.9705 H   0  0  0  0  0  0  0  0  0  0  0  0
  132.0978  125.1211  121.4699 H   0  0  0  0  0  0  0  0  0  0  0  0
  132.9494  126.4515  122.4218 H   0  0  0  0  0  0  0  0  0  0  0  0
  134.0766  123.7462  121.6663 H   0  0  0  0  0  0  0  0  0  0  0  0
  134.5003  125.4068  120.9909 H   0  0  0  0  0  0  0  0  0  0  0  0
  134.7860  125.2030  123.7760 H   0  0  0  0  0  0  0  0  0  0  0  0
  136.4758  126.6097  123.6347 H   0  0  0  0  0  0  0  0  0  0  0  0
  137.0549  125.8820  122.0979 H   0  0  0  0  0  0  0  0  0  0  0  0
  135.6100  126.9493  122.0979 H   0  0  0  0  0  0  0  0  0  0  0  0
  135.9526  123.0313  122.3713 H   0  0  0  0  0  0  0  0  0  0  0  0
  137.1151  124.0149  123.3635 H   0  0  0  0  0  0  0  0  0  0  0  0
  135.5085  124.8933  125.6282 H   0  0  0  0  0  0  0  0  0  0  0  0
  134.6558  123.7801  127.6871 H   0  0  0  0  0  0  0  0  0  0  0  0
  134.2448  121.3225  127.7017 H   0  0  0  0  0  0  0  0  0  0  0  0
  134.6990  119.9694  125.6582 H   0  0  0  0  0  0  0  0  0  0  0  0
  135.5513  121.0729  123.5924 H   0  0  0  0  0  0  0  0  0  0  0  0
  131.9207  126.8099  124.4294 H   0  0  0  0  0  0  0  0  0  0  0  0
  1  2  1  0
  2  3  1  0
  3  4  2  0
  3  5  1  0
  5  6  1  0
  6  7  2  0
  7  8  1  0
  8  9  2  0
  9 10  1  0
 10 11  1  0
 11 12  1  0
 12 13  1  0
 12 14  1  0
 14 15  1  0
 15 16  2  0
 16 17  1  0
 17 18  2  0
 18 19  1  0
 19 20  2  0
  9 21  1  0
 21  5  2  0
 20 15  1  0
  1 22  1  0
  1 23  1  0
  1 24  1  0
  6 25  1  0
  7 26  1  0
  8 27  1  0
 10 28  1  0
 10 29  1  0
 11 30  1  0
 11 31  1  0
 12 32  1  1
 13 33  1  0
 13 34  1  0
 13 35  1  0
 14 36  1  0
 14 37  1  0
 16 38  1  0
 17 39  1  0
 18 40  1  0
 19 41  1  0
 20 42  1  0
 21 43  1  0
M  CHG  1  12   1
M  END
>  <meeko>  (2) 
{"is_sidechain": [false], "free_energy": -7.236, "intermolecular_energy": -10.525, "internal_energy": -2.178}

$$$$
seed-5302
     RDKit          3D

 43 44  0  0  0  0  0  0  0  0999 V2000
  133.5280  124.0890  117.3470 C   0  0  0  0  0  0  0  0  0  0  0  0
  134.2460  124.9530  118.2340 O   0  0  0  0  0  0  0  0  0  0  0  0
  134.9220  124.2940  119.2080 C   0  0  0  0  0  0  0  0  0  0  0  0
  135.5440  123.2540  119.0720 O   0  0  0  0  0  0  0  0  0  0  0  0
  134.7870  125.0050  120.5090 C   0  0  0  0  0  0  0  0  0  0  0  0
  135.9340  125.5830  121.0670 C   0  0  0  0  0  0  0  0  0  0  0  0
  135.8550  126.2700  122.2780 C   0  0  0  0  0  0  0  0  0  0  0  0
  134.6360  126.3730  122.9480 C   0  0  0  0  0  0  0  0  0  0  0  0
  133.4800  125.7820  122.4210 C   0  0  0  0  0  0  0  0  0  0  0  0
  132.1650  125.8920  123.1520 C   0  0  0  0  0  0  0  0  0  0  0  0
  132.2600  125.9580  124.6850 C   0  0  0  0  0  0  0  0  0  0  0  0
  131.8660  124.6910  125.4160 N   0  0  2  0  0  0  0  0  0  0  0  0
  130.5470  124.7780  126.1320 C   0  0  0  0  0  0  0  0  0  0  0  0
  132.9640  124.0840  126.2670 C   0  0  0  0  0  0  0  0  0  0  0  0
  134.1600  123.6710  125.4480 C   0  0  0  0  0  0  0  0  0  0  0  0
  134.0130  122.7990  124.3600 C   0  0  0  0  0  0  0  0  0  0  0  0
  135.1180  122.4440  123.5850 C   0  0  0  0  0  0  0  0  0  0  0  0
  136.3770  122.9550  123.8890 C   0  0  0  0  0  0  0  0  0  0  0  0
  136.5370  123.8180  124.9710 C   0  0  0  0  0  0  0  0  0  0  0  0
  135.4350  124.1760  125.7490 C   0  0  0  0  0  0  0  0  0  0  0  0
  133.5620  125.1150  121.1860 C   0  0  0  0  0  0  0  0  0  0  0  0
  132.9333  123.3734  117.9337 H   0  0  0  0  0  0  0  0  0  0  0  0
  132.8587  124.6888  116.7128 H   0  0  0  0  0  0  0  0  0  0  0  0
  134.2402  123.5408  116.7128 H   0  0  0  0  0  0  0  0  0  0  0  0
  136.9002  125.4949  120.5486 H   0  0  0  0  0  0  0  0  0  0  0  0
  136.7568  126.7321  122.7061 H   0  0  0  0  0  0  0  0  0  0  0  0
  134.5817  126.9233  123.8989 H   0  0  0  0  0  0  0  0  0  0  0  0
  131.6602  126.8056  122.8047 H   0  0  0  0  0  0  0  0  0  0  0  0
  131.6161  124.9663  122.9244 H   0  0  0  0  0  0  0  0  0  0  0  0
  133.3012  126.1931  124.9506 H   0  0  0  0  0  0  0  0  0  0  0  0
  131.5388  126.7264  125.0004 H   0  0  0  0  0  0  0  0  0  0  0  0
  131.7150  123.9970  124.6730 H   0  0  0  0  0  0  0  0  0  0  0  0
  130.7182  124.7667  127.2185 H   0  0  0  0  0  0  0  0  0  0  0  0
  130.0380  125.7117  125.8507 H   0  0  0  0  0  0  0  0  0  0  0  0
  129.9197  123.9193  125.8507 H   0  0  0  0  0  0  0  0  0  0  0  0
  133.2851  124.8264  127.0125 H   0  0  0  0  0  0  0  0  0  0  0  0
  132.5575  123.1819  126.7477 H   0  0  0  0  0  0  0  0  0  0  0  0
  133.0206  122.3922  124.1157 H   0  0  0  0  0  0  0  0  0  0  0  0
  134.9941  121.7596  122.7328 H   0  0  0  0  0  0  0  0  0  0  0  0
  137.2460  122.6771  123.2744 H   0  0  0  0  0  0  0  0  0  0  0  0
  137.5330  124.2177  125.2124 H   0  0  0  0  0  0  0  0  0  0  0  0
  135.5661  124.8574  126.6025 H   0  0  0  0  0  0  0  0  0  0  0  0
  132.6558  124.6742  120.7451 H   0  0  0  0  0  0  0  0  0  0  0  0
  1  2  1  0
  2  3  1  0
  3  4  2  0
  3  5  1  0
  5  6  1  0
  6  7  2  0
  7  8  1  0
  8  9  2  0
  9 10  1  0
 10 11  1  0
 11 12  1  0
 12 13  1  0
 12 14  1  0
 14 15  1  0
 15 16  2  0
 16 17  1  0
 17 18  2  0
 18 19  1  0
 19 20  2  0
  9 21  1  0
 21  5  2  0
 20 15  1  0
  1 22  1  0
  1 23  1  0
  1 24  1  0
  6 25  1  0
  7 26  1  0
  8 27  1  0
 10 28  1  0
 10 29  1  0
 11 30  1  0
 11 31  1  0
 12 32  1  6
 13 33  1  0
 13 34  1  0
 13 35  1  0
 14 36  1  0
 14 37  1  0
 16 38  1  0
 17 39  1  0
 18 40  1  0
 19 41  1  0
 20 42  1  0
 21 43  1  0
M  CHG  1  12   1
M  END
>  <meeko>  (3) 
{"is_sidechain": [false], "free_energy": -7.197, "intermolecular_energy": -10.341, "internal_energy": -2.307}

$$$$
seed-5302
     RDKit          3D

 43 44  0  0  0  0  0  0  0  0999 V2000
  132.8240  121.0820  126.6140 C   0  0  0  0  0  0  0  0  0  0  0  0
  134.0240  121.1190  125.8350 O   0  0  0  0  0  0  0  0  0  0  0  0
  135.0120  121.8620  126.3940 C   0  0  0  0  0  0  0  0  0  0  0  0
  135.4280  121.7610  127.5370 O   0  0  0  0  0  0  0  0  0  0  0  0
  135.5250  122.8650  125.4200 C   0  0  0  0  0  0  0  0  0  0  0  0
  135.9220  124.1160  125.9090 C   0  0  0  0  0  0  0  0  0  0  0  0
  136.4210  125.0840  125.0380 C   0  0  0  0  0  0  0  0  0  0  0  0
  136.5140  124.8170  123.6720 C   0  0  0  0  0  0  0  0  0  0  0  0
  136.1000  123.5800  123.1570 C   0  0  0  0  0  0  0  0  0  0  0  0
  136.1990  123.2990  121.6780 C   0  0  0  0  0  0  0  0  0  0  0  0
  135.9440  124.5000  120.7540 C   0  0  0  0  0  0  0  0  0  0  0  0
  134.5000  124.7090  120.3430 N   0  0  2  0  0  0  0  0  0  0  0  0
  134.2830  124.7540  118.8570 C   0  0  0  0  0  0  0  0  0  0  0  0
  133.7880  125.8260  121.0810 C   0  0  0  0  0  0  0  0  0  0  0  0
  133.1910  125.3610  122.3830 C   0  0  0  0  0  0  0  0  0  0  0  0
  132.6360  124.0780  122.4960 C   0  0  0  0  0  0  0  0  0  0  0  0
  132.1120  123.6390  123.7130 C   0  0  0  0  0  0  0  0  0  0  0  0
  132.1380  124.4760  124.8260 C   0  0  0  0  0  0  0  0  0  0  0  0
  132.6810  125.7550  124.7250 C   0  0  0  0  0  0  0  0  0  0  0  0
  133.2060  126.1980  123.5100 C   0  0  0  0  0  0  0  0  0  0  0  0
  135.6250  122.6010  124.0450 C   0  0  0  0  0  0  0  0  0  0  0  0
  133.0808  121.0899  127.6836 H   0  0  0  0  0  0  0  0  0  0  0  0
  132.2068  121.9615  126.3786 H   0  0  0  0  0  0  0  0  0  0  0  0
  132.2621  120.1661  126.3786 H   0  0  0  0  0  0  0  0  0  0  0  0
  135.8399  124.3357  126.9837 H   0  0  0  0  0  0  0  0  0  0  0  0
  136.7421  126.0607  125.4292 H   0  0  0  0  0  0  0  0  0  0  0  0
  136.9156  125.5834  122.9928 H   0  0  0  0  0  0  0  0  0  0  0  0
  137.2121  122.9232  121.4723 H   0  0  0  0  0  0  0  0  0  0  0  0
  135.4015  122.5747  121.4560 H   0  0  0  0  0  0  0  0  0  0  0  0
  136.2832  125.4073  121.2753 H   0  0  0  0  0  0  0  0  0  0  0  0
  136.4961  124.2909  119.8258 H   0  0  0  0  0  0  0  0  0  0  0  0
  134.0150  123.8580  120.6520 H   0  0  0  0  0  0  0  0  0  0  0  0
  133.2257  124.9733  118.6473 H   0  0  0  0  0  0  0  0  0  0  0  0
  134.9146  125.5403  118.4179 H   0  0  0  0  0  0  0  0  0  0  0  0
  134.5499  123.7814  118.4179 H   0  0  0  0  0  0  0  0  0  0  0  0
  134.5105  126.6288  121.2898 H   0  0  0  0  0  0  0  0  0  0  0  0
  132.9663  126.1813  120.4419 H   0  0  0  0  0  0  0  0  0  0  0  0
  132.6135  123.4133  121.6198 H   0  0  0  0  0  0  0  0  0  0  0  0
  131.6782  122.6313  123.7931 H   0  0  0  0  0  0  0  0  0  0  0  0
  131.7294  124.1268  125.7857 H   0  0  0  0  0  0  0  0  0  0  0  0
  132.6960  126.4165  125.6038 H   0  0  0  0  0  0  0  0  0  0  0  0
  133.6339  127.2086  123.4351 H   0  0  0  0  0  0  0  0  0  0  0  0
  135.3277  121.6151  123.6582 H   0  0  0  0  0  0  0  0  0  0  0  0
  1  2  1  0
  2  3  1  0
  3  4  2  0
  3  5  1  0
  5  6  1  0
  6  7  2  0
  7  8  1  0
  8  9  2  0
  9 10  1  0
 10 11  1  0
 11 12  1  0
 12 13  1  0
 12 14  1  0
 14 15  1  0
 15 16  2  0
 16 17  1  0
 17 18  2  0
 18 19  1  0
 19 20  2  0
  9 21  1  0
 21  5  2  0
 20 15  1  0
  1 22  1  0
  1 23  1  0
  1 24  1  0
  6 25  1  0
  7 26  1  0
  8 27  1  0
 10 28  1  0
 10 29  1  0
 11 30  1  0
 11 31  1  0
 12 32  1  1
 13 33  1  0
 13 34  1  0
 13 35  1  0
 14 36  1  0
 14 37  1  0
 16 38  1  0
 17 39  1  0
 18 40  1  0
 19 41  1  0
 20 42  1  0
 21 43  1  0
M  CHG  1  12   1
M  END
>  <meeko>  (4) 
{"is_sidechain": [false], "free_energy": -6.971, "intermolecular_energy": -9.786, "internal_energy": -2.544}

$$$$
seed-5302
     RDKit          3D

 43 44  0  0  0  0  0  0  0  0999 V2000
  134.7620  122.8360  116.6170 C   0  0  0  0  0  0  0  0  0  0  0  0
  135.1910  123.0540  117.9650 O   0  0  0  0  0  0  0  0  0  0  0  0
  134.7700  124.2340  118.4860 C   0  0  0  0  0  0  0  0  0  0  0  0
  134.3640  125.1940  117.8530 O   0  0  0  0  0  0  0  0  0  0  0  0
  134.8940  124.2220  119.9700 C   0  0  0  0  0  0  0  0  0  0  0  0
  135.7910  123.3170  120.5500 C   0  0  0  0  0  0  0  0  0  0  0  0
  135.9520  123.2770  121.9340 C   0  0  0  0  0  0  0  0  0  0  0  0
  135.2070  124.1280  122.7510 C   0  0  0  0  0  0  0  0  0  0  0  0
  134.2850  125.0250  122.1950 C   0  0  0  0  0  0  0  0  0  0  0  0
  133.4790  125.9390  123.0830 C   0  0  0  0  0  0  0  0  0  0  0  0
  133.5640  125.6470  124.5900 C   0  0  0  0  0  0  0  0  0  0  0  0
  132.3780  124.9080  125.1770 N   0  0  2  0  0  0  0  0  0  0  0  0
  131.1460  125.7530  125.3440 C   0  0  0  0  0  0  0  0  0  0  0  0
  132.6960  124.0750  126.4040 C   0  0  0  0  0  0  0  0  0  0  0  0
  133.7930  123.0750  126.1460 C   0  0  0  0  0  0  0  0  0  0  0  0
  135.0630  123.2450  126.7180 C   0  0  0  0  0  0  0  0  0  0  0  0
  136.0670  122.3000  126.5030 C   0  0  0  0  0  0  0  0  0  0  0  0
  135.8140  121.1800  125.7150 C   0  0  0  0  0  0  0  0  0  0  0  0
  134.5590  121.0030  125.1360 C   0  0  0  0  0  0  0  0  0  0  0  0
  133.5510  121.9450  125.3490 C   0  0  0  0  0  0  0  0  0  0  0  0
  134.1490  125.0780  120.7970 C   0  0  0  0  0  0  0  0  0  0  0  0
  133.7814  122.3377  116.6204 H   0  0  0  0  0  0  0  0  0  0  0  0
  134.6806  123.8021  116.0973 H   0  0  0  0  0  0  0  0  0  0  0  0
  135.4943  122.2007  116.0973 H   0  0  0  0  0  0  0  0  0  0  0  0
  136.3710  122.6348  119.9110 H   0  0  0  0  0  0  0  0  0  0  0  0
  136.6680  122.5729  122.3831 H   0  0  0  0  0  0  0  0  0  0  0  0
  135.3447  124.0945  123.8418 H   0  0  0  0  0  0  0  0  0  0  0  0
  133.8307  126.9680  122.9175 H   0  0  0  0  0  0  0  0  0  0  0  0
  132.4271  125.7778  122.8045 H   0  0  0  0  0  0  0  0  0  0  0  0
  134.4639  125.0400  124.7678 H   0  0  0  0  0  0  0  0  0  0  0  0
  133.5867  126.6276  125.0879 H   0  0  0  0  0  0  0  0  0  0  0  0
  132.1250  124.2130  124.4630 H   0  0  0  0  0  0  0  0  0  0  0  0
  130.9405  125.8939  126.4154 H   0  0  0  0  0  0  0  0  0  0  0  0
  131.3060  126.7324  124.8694 H   0  0  0  0  0  0  0  0  0  0  0  0
  130.2900  125.2510  124.8694 H   0  0  0  0  0  0  0  0  0  0  0  0
  133.0129  124.7467  127.2154 H   0  0  0  0  0  0  0  0  0  0  0  0
  131.7883  123.5167  126.6769 H   0  0  0  0  0  0  0  0  0  0  0  0
  135.2685  124.1288  127.3398 H   0  0  0  0  0  0  0  0  0  0  0  0
  137.0594  122.4399  126.9564 H   0  0  0  0  0  0  0  0  0  0  0  0
  136.6056  120.4344  125.5495 H   0  0  0  0  0  0  0  0  0  0  0  0
  134.3623  120.1199  124.5103 H   0  0  0  0  0  0  0  0  0  0  0  0
  132.5618  121.8010  124.8899 H   0  0  0  0  0  0  0  0  0  0  0  0
  133.4509  125.7984  120.3456 H   0  0  0  0  0  0  0  0  0  0  0  0
  1  2  1  0
  2  3  1  0
  3  4  2  0
  3  5  1  0
  5  6  1  0
  6  7  2  0
  7  8  1  0
  8  9  2  0
  9 10  1  0
 10 11  1  0
 11 12  1  0
 12 13  1  0
 12 14  1  0
 14 15  1  0
 15 16  2  0
 16 17  1  0
 17 18  2  0
 18 19  1  0
 19 20  2  0
  9 21  1  0
 21  5  2  0
 20 15  1  0
  1 22  1  0
  1 23  1  0
  1 24  1  0
  6 25  1  0
  7 26  1  0
  8 27  1  0
 10 28  1  0
 10 29  1  0
 11 30  1  0
 11 31  1  0
 12 32  1  6
 13 33  1  0
 13 34  1  0
 13 35  1  0
 14 36  1  0
 14 37  1  0
 16 38  1  0
 17 39  1  0
 18 40  1  0
 19 41  1  0
 20 42  1  0
 21 43  1  0
M  CHG  1  12   1
M  END
>  <meeko>  (5) 
{"is_sidechain": [false], "free_energy": -6.937, "intermolecular_energy": -11.066, "internal_energy": -1.215}

$$$$
seed-5302
     RDKit          3D

 43 44  0  0  0  0  0  0  0  0999 V2000
  136.4240  127.7990  125.1350 C   0  0  0  0  0  0  0  0  0  0  0  0
  136.9590  126.6110  124.5430 O   0  0  0  0  0  0  0  0  0  0  0  0
  136.9390  125.5350  125.3690 C   0  0  0  0  0  0  0  0  0  0  0  0
  137.3290  125.5090  126.5250 O   0  0  0  0  0  0  0  0  0  0  0  0
  136.3900  124.3450  124.6620 C   0  0  0  0  0  0  0  0  0  0  0  0
  135.8360  123.3160  125.4340 C   0  0  0  0  0  0  0  0  0  0  0  0
  135.2970  122.1880  124.8170 C   0  0  0  0  0  0  0  0  0  0  0  0
  135.3200  122.0700  123.4270 C   0  0  0  0  0  0  0  0  0  0  0  0
  135.8910  123.0760  122.6350 C   0  0  0  0  0  0  0  0  0  0  0  0
  135.9180  122.9410  121.1330 C   0  0  0  0  0  0  0  0  0  0  0  0
  135.8380  124.2580  120.3450 C   0  0  0  0  0  0  0  0  0  0  0  0
  134.4450  124.6750  119.9160 N   0  0  2  0  0  0  0  0  0  0  0  0
  134.2750  124.8130  118.4290 C   0  0  0  0  0  0  0  0  0  0  0  0
  133.8690  125.8460  120.6890 C   0  0  0  0  0  0  0  0  0  0  0  0
  133.3010  125.4260  122.0200 C   0  0  0  0  0  0  0  0  0  0  0  0
  132.5300  124.2600  122.1310 C   0  0  0  0  0  0  0  0  0  0  0  0
  132.0310  123.8580  123.3710 C   0  0  0  0  0  0  0  0  0  0  0  0
  132.2980  124.6150  124.5090 C   0  0  0  0  0  0  0  0  0  0  0  0
  133.0580  125.7780  124.4110 C   0  0  0  0  0  0  0  0  0  0  0  0
  133.5580  126.1850  123.1730 C   0  0  0  0  0  0  0  0  0  0  0  0
  136.4070  124.2230  123.2630 C   0  0  0  0  0  0  0  0  0  0  0  0
  136.4631  127.7122  126.2309 H   0  0  0  0  0  0  0  0  0  0  0  0
  137.0178  128.6678  124.8146 H   0  0  0  0  0  0  0  0  0  0  0  0
  135.3799  127.9302  124.8146 H   0  0  0  0  0  0  0  0  0  0  0  0
  135.8262  123.3982  126.5309 H   0  0  0  0  0  0  0  0  0  0  0  0
  134.8522  121.3886  125.4279 H   0  0  0  0  0  0  0  0  0  0  0  0
  134.8863  121.1797  122.9483 H   0  0  0  0  0  0  0  0  0  0  0  0
  136.8557  122.4374  120.8555 H   0  0  0  0  0  0  0  0  0  0  0  0
  135.0128  122.3758  120.8660 H   0  0  0  0  0  0  0  0  0  0  0  0
  136.2521  125.0574  120.9770 H   0  0  0  0  0  0  0  0  0  0  0  0
  136.4039  124.0908  119.4167 H   0  0  0  0  0  0  0  0  0  0  0  0
  133.8440  123.8840  120.1760 H   0  0  0  0  0  0  0  0  0  0  0  0
  133.4369  125.4933  118.2173 H   0  0  0  0  0  0  0  0  0  0  0  0
  135.1979  125.2207  117.9907 H   0  0  0  0  0  0  0  0  0  0  0  0
  134.0658  123.8260  117.9907 H   0  0  0  0  0  0  0  0  0  0  0  0
  134.6668  126.5834  120.8613 H   0  0  0  0  0  0  0  0  0  0  0  0
  133.0499  126.2739  120.0925 H   0  0  0  0  0  0  0  0  0  0  0  0
  132.3171  123.6583  121.2351 H   0  0  0  0  0  0  0  0  0  0  0  0
  131.4263  122.9425  123.4494 H   0  0  0  0  0  0  0  0  0  0  0  0
  131.9083  124.2941  125.4863 H   0  0  0  0  0  0  0  0  0  0  0  0
  133.2645  126.3766  125.3105 H   0  0  0  0  0  0  0  0  0  0  0  0
  134.1565  127.1051  123.1003 H   0  0  0  0  0  0  0  0  0  0  0  0
  136.8289  125.0343  122.6516 H   0  0  0  0  0  0  0  0  0  0  0  0
  1  2  1  0
  2  3  1  0
  3  4  2  0
  3  5  1  0
  5  6  1  0
  6  7  2  0
  7  8  1  0
  8  9  2  0
  9 10  1  0
 10 11  1  0
 11 12  1  0
 12 13  1  0
 12 14  1  0
 14 15  1  0
 15 16  2  0
 16 17  1  0
 17 18  2  0
 18 19  1  0
 19 20  2  0
  9 21  1  0
 21  5  2  0
 20 15  1  0
  1 22  1  0
  1 23  1  0
  1 24  1  0
  6 25  1  0
  7 26  1  0
  8 27  1  0
 10 28  1  0
 10 29  1  0
 11 30  1  0
 11 31  1  0
 12 32  1  1
 13 33  1  0
 13 34  1  0
 13 35  1  0
 14 36  1  0
 14 37  1  0
 16 38  1  0
 17 39  1  0
 18 40  1  0
 19 41  1  0
 20 42  1  0
 21 43  1  0
M  CHG  1  12   1
M  END
>  <meeko>  (6) 
{"is_sidechain": [false], "free_energy": -6.83, "intermolecular_energy": -9.596, "internal_energy": -2.536}

$$$$
seed-5302
     RDKit          3D

 43 44  0  0  0  0  0  0  0  0999 V2000
  128.2700  124.0430  126.9790 C   0  0  0  0  0  0  0  0  0  0  0  0
  129.1730  123.6550  125.9400 O   0  0  0  0  0  0  0  0  0  0  0  0
  130.4550  123.5040  126.3600 C   0  0  0  0  0  0  0  0  0  0  0  0
  130.8370  122.7580  127.2460 O   0  0  0  0  0  0  0  0  0  0  0  0
  131.3620  124.4090  125.6010 C   0  0  0  0  0  0  0  0  0  0  0  0
  131.8720  125.5350  126.2580 C   0  0  0  0  0  0  0  0  0  0  0  0
  132.7350  126.4050  125.5940 C   0  0  0  0  0  0  0  0  0  0  0  0
  133.0850  126.1670  124.2640 C   0  0  0  0  0  0  0  0  0  0  0  0
  132.5670  125.0590  123.5780 C   0  0  0  0  0  0  0  0  0  0  0  0
  132.9450  124.8100  122.1390 C   0  0  0  0  0  0  0  0  0  0  0  0
  134.3120  124.1450  121.9160 C   0  0  0  0  0  0  0  0  0  0  0  0
  135.4520  124.7090  122.7410 N   0  0  2  0  0  0  0  0  0  0  0  0
  136.2580  125.7650  122.0380 C   0  0  0  0  0  0  0  0  0  0  0  0
  136.3120  123.6660  123.4280 C   0  0  0  0  0  0  0  0  0  0  0  0
  135.5960  123.0010  124.5750 C   0  0  0  0  0  0  0  0  0  0  0  0
  135.2090  121.6560  124.4910 C   0  0  0  0  0  0  0  0  0  0  0  0
  134.5740  121.0350  125.5680 C   0  0  0  0  0  0  0  0  0  0  0  0
  134.3200  121.7500  126.7350 C   0  0  0  0  0  0  0  0  0  0  0  0
  134.6950  123.0890  126.8290 C   0  0  0  0  0  0  0  0  0  0  0  0
  135.3300  123.7140  125.7550 C   0  0  0  0  0  0  0  0  0  0  0  0
  131.7200  124.1720  124.2640 C   0  0  0  0  0  0  0  0  0  0  0  0
  128.7307  123.8450  127.9581 H   0  0  0  0  0  0  0  0  0  0  0  0
  128.0470  125.1164  126.8890 H   0  0  0  0  0  0  0  0  0  0  0  0
  127.3378  123.4660  126.8890 H   0  0  0  0  0  0  0  0  0  0  0  0
  131.5905  125.7340  127.3026 H   0  0  0  0  0  0  0  0  0  0  0  0
  133.1414  127.2817  126.1196 H   0  0  0  0  0  0  0  0  0  0  0  0
  133.7729  126.8542  123.7496 H   0  0  0  0  0  0  0  0  0  0  0  0
  132.1764  124.1603  121.6950 H   0  0  0  0  0  0  0  0  0  0  0  0
  133.0139  125.8028  121.6704 H   0  0  0  0  0  0  0  0  0  0  0  0
  134.2134  123.0767  122.1591 H   0  0  0  0  0  0  0  0  0  0  0  0
  134.5745  124.3370  120.8652 H   0  0  0  0  0  0  0  0  0  0  0  0
  134.9930  125.2040  123.5160 H   0  0  0  0  0  0  0  0  0  0  0  0
  136.7489  126.4082  122.7832 H   0  0  0  0  0  0  0  0  0  0  0  0
  137.0214  125.2849  121.4082 H   0  0  0  0  0  0  0  0  0  0  0  0
  135.5935  126.3747  121.4082 H   0  0  0  0  0  0  0  0  0  0  0  0
  136.5919  122.8976  122.6923 H   0  0  0  0  0  0  0  0  0  0  0  0
  137.1988  124.1748  123.8339 H   0  0  0  0  0  0  0  0  0  0  0  0
  135.4069  121.0867  123.5709 H   0  0  0  0  0  0  0  0  0  0  0  0
  134.2740  119.9793  125.4943 H   0  0  0  0  0  0  0  0  0  0  0  0
  133.8228  121.2577  127.5838 H   0  0  0  0  0  0  0  0  0  0  0  0
  134.4903  123.6536  127.7506 H   0  0  0  0  0  0  0  0  0  0  0  0
  135.6238  124.7711  125.8333 H   0  0  0  0  0  0  0  0  0  0  0  0
  131.3328  123.2813  123.7475 H   0  0  0  0  0  0  0  0  0  0  0  0
  1  2  1  0
  2  3  1  0
  3  4  2  0
  3  5  1  0
  5  6  1  0
  6  7  2  0
  7  8  1  0
  8  9  2  0
  9 10  1  0
 10 11  1  0
 11 12  1  0
 12 13  1  0
 12 14  1  0
 14 15  1  0
 15 16  2  0
 16 17  1  0
 17 18  2  0
 18 19  1  0
 19 20  2  0
  9 21  1  0
 21  5  2  0
 20 15  1  0
  1 22  1  0
  1 23  1  0
  1 24  1  0
  6 25  1  0
  7 26  1  0
  8 27  1  0
 10 28  1  0
 10 29  1  0
 11 30  1  0
 11 31  1  0
 12 32  1  1
 13 33  1  0
 13 34  1  0
 13 35  1  0
 14 36  1  0
 14 37  1  0
 16 38  1  0
 17 39  1  0
 18 40  1  0
 19 41  1  0
 20 42  1  0
 21 43  1  0
M  CHG  1  12   1
M  END
>  <meeko>  (7) 
{"is_sidechain": [false], "free_energy": -6.758, "intermolecular_energy": -10.093, "internal_energy": -1.936}

$$$$
seed-5302
     RDKit          3D

 43 44  0  0  0  0  0  0  0  0999 V2000
  129.5710  128.2730  126.3290 C   0  0  0  0  0  0  0  0  0  0  0  0
  130.3030  127.1680  126.8660 O   0  0  0  0  0  0  0  0  0  0  0  0
  131.6020  127.1340  126.4760 C   0  0  0  0  0  0  0  0  0  0  0  0
  132.4300  128.0110  126.6570 O   0  0  0  0  0  0  0  0  0  0  0  0
  131.8960  125.8650  125.7540 C   0  0  0  0  0  0  0  0  0  0  0  0
  131.8110  125.8660  124.3560 C   0  0  0  0  0  0  0  0  0  0  0  0
  132.0900  124.7070  123.6340 C   0  0  0  0  0  0  0  0  0  0  0  0
  132.4410  123.5330  124.3010 C   0  0  0  0  0  0  0  0  0  0  0  0
  132.5090  123.5010  125.7010 C   0  0  0  0  0  0  0  0  0  0  0  0
  132.8850  122.2280  126.4180 C   0  0  0  0  0  0  0  0  0  0  0  0
  133.9850  121.3880  125.7490 C   0  0  0  0  0  0  0  0  0  0  0  0
  135.3240  121.3850  126.4600 N   0  0  2  0  0  0  0  0  0  0  0  0
  135.3160  122.0870  127.7890 C   0  0  0  0  0  0  0  0  0  0  0  0
  136.5030  121.7760  125.5900 C   0  0  0  0  0  0  0  0  0  0  0  0
  136.1740  122.9130  124.6590 C   0  0  0  0  0  0  0  0  0  0  0  0
  136.1420  124.2340  125.1300 C   0  0  0  0  0  0  0  0  0  0  0  0
  135.8680  125.2880  124.2580 C   0  0  0  0  0  0  0  0  0  0  0  0
  135.6230  125.0340  122.9110 C   0  0  0  0  0  0  0  0  0  0  0  0
  135.6470  123.7260  122.4320 C   0  0  0  0  0  0  0  0  0  0  0  0
  135.9200  122.6680  123.3010 C   0  0  0  0  0  0  0  0  0  0  0  0
  132.2540  124.6820  126.4200 C   0  0  0  0  0  0  0  0  0  0  0  0
  129.1683  128.8810  127.1525 H   0  0  0  0  0  0  0  0  0  0  0  0
  130.2396  128.8900  125.7107 H   0  0  0  0  0  0  0  0  0  0  0  0
  128.7421  127.8980  125.7107 H   0  0  0  0  0  0  0  0  0  0  0  0
  131.5228  126.7855  123.8256 H   0  0  0  0  0  0  0  0  0  0  0  0
  132.0333  124.7179  122.5355 H   0  0  0  0  0  0  0  0  0  0  0  0
  132.6664  122.6244  123.7234 H   0  0  0  0  0  0  0  0  0  0  0  0
  133.2315  122.4975  127.4266 H   0  0  0  0  0  0  0  0  0  0  0  0
  131.9814  121.6007  126.4105 H   0  0  0  0  0  0  0  0  0  0  0  0
  133.6297  120.3486  125.6901 H   0  0  0  0  0  0  0  0  0  0  0  0
  134.1643  121.8503  124.7671 H   0  0  0  0  0  0  0  0  0  0  0  0
  135.4970  120.3980  126.6860 H   0  0  0  0  0  0  0  0  0  0  0  0
  135.3245  121.3413  128.5976 H   0  0  0  0  0  0  0  0  0  0  0  0
  136.2069  122.7270  127.8710 H   0  0  0  0  0  0  0  0  0  0  0  0
  134.4107  122.7065  127.8710 H   0  0  0  0  0  0  0  0  0  0  0  0
  137.3365  122.0808  126.2399 H   0  0  0  0  0  0  0  0  0  0  0  0
  136.7712  120.9043  124.9750 H   0  0  0  0  0  0  0  0  0  0  0  0
  136.3341  124.4401  126.1933 H   0  0  0  0  0  0  0  0  0  0  0  0
  135.8455  126.3211  124.6351 H   0  0  0  0  0  0  0  0  0  0  0  0
  135.4103  125.8668  122.2246 H   0  0  0  0  0  0  0  0  0  0  0  0
  135.4507  123.5267  121.3682 H   0  0  0  0  0  0  0  0  0  0  0  0
  135.9361  121.6366  122.9190 H   0  0  0  0  0  0  0  0  0  0  0  0
  132.3359  124.6791  127.5169 H   0  0  0  0  0  0  0  0  0  0  0  0
  1  2  1  0
  2  3  1  0
  3  4  2  0
  3  5  1  0
  5  6  1  0
  6  7  2  0
  7  8  1  0
  8  9  2  0
  9 10  1  0
 10 11  1  0
 11 12  1  0
 12 13  1  0
 12 14  1  0
 14 15  1  0
 15 16  2  0
 16 17  1  0
 17 18  2  0
 18 19  1  0
 19 20  2  0
  9 21  1  0
 21  5  2  0
 20 15  1  0
  1 22  1  0
  1 23  1  0
  1 24  1  0
  6 25  1  0
  7 26  1  0
  8 27  1  0
 10 28  1  0
 10 29  1  0
 11 30  1  0
 11 31  1  0
 12 32  1  1
 13 33  1  0
 13 34  1  0
 13 35  1  0
 14 36  1  0
 14 37  1  0
 16 38  1  0
 17 39  1  0
 18 40  1  0
 19 41  1  0
 20 42  1  0
 21 43  1  0
M  CHG  1  12   1
M  END
>  <meeko>  (8) 
{"is_sidechain": [false], "free_energy": -6.618, "intermolecular_energy": -9.894, "internal_energy": -1.938}

$$$$
seed-5302
     RDKit          3D

 43 44  0  0  0  0  0  0  0  0999 V2000
  127.7400  127.8550  122.8040 C   0  0  0  0  0  0  0  0  0  0  0  0
  128.2530  127.9940  124.1330 O   0  0  0  0  0  0  0  0  0  0  0  0
  129.4960  128.5340  124.1820 C   0  0  0  0  0  0  0  0  0  0  0  0
  129.7950  129.6780  123.8810 O   0  0  0  0  0  0  0  0  0  0  0  0
  130.4870  127.5200  124.6370 C   0  0  0  0  0  0  0  0  0  0  0  0
  130.8000  127.4700  126.0010 C   0  0  0  0  0  0  0  0  0  0  0  0
  131.7120  126.5290  126.4780 C   0  0  0  0  0  0  0  0  0  0  0  0
  132.3300  125.6420  125.5970 C   0  0  0  0  0  0  0  0  0  0  0  0
  132.0510  125.6900  124.2240 C   0  0  0  0  0  0  0  0  0  0  0  0
  132.7260  124.7310  123.2740 C   0  0  0  0  0  0  0  0  0  0  0  0
  133.9730  125.2720  122.5580 C   0  0  0  0  0  0  0  0  0  0  0  0
  135.2260  125.3560  123.4070 N   0  0  2  0  0  0  0  0  0  0  0  0
  136.0790  126.5610  123.1280 C   0  0  0  0  0  0  0  0  0  0  0  0
  136.0250  124.0690  123.4840 C   0  0  0  0  0  0  0  0  0  0  0  0
  135.6020  123.2030  124.6420 C   0  0  0  0  0  0  0  0  0  0  0  0
  135.4080  121.8250  124.4690 C   0  0  0  0  0  0  0  0  0  0  0  0
  135.0460  121.0210  125.5510 C   0  0  0  0  0  0  0  0  0  0  0  0
  134.8750  121.5850  126.8130 C   0  0  0  0  0  0  0  0  0  0  0  0
  135.0590  122.9530  126.9960 C   0  0  0  0  0  0  0  0  0  0  0  0
  135.4210  123.7610  125.9170 C   0  0  0  0  0  0  0  0  0  0  0  0
  131.1100  126.6220  123.7550 C   0  0  0  0  0  0  0  0  0  0  0  0
  126.6792  127.5676  122.8487 H   0  0  0  0  0  0  0  0  0  0  0  0
  127.8384  128.8122  122.2710 H   0  0  0  0  0  0  0  0  0  0  0  0
  128.3082  127.0784  122.2710 H   0  0  0  0  0  0  0  0  0  0  0  0
  130.3249  128.1754  126.6986 H   0  0  0  0  0  0  0  0  0  0  0  0
  131.9446  126.4863  127.5523 H   0  0  0  0  0  0  0  0  0  0  0  0
  133.0426  124.8982  125.9828 H   0  0  0  0  0  0  0  0  0  0  0  0
  133.0245  123.8409  123.8473 H   0  0  0  0  0  0  0  0  0  0  0  0
  131.9907  124.5247  122.4823 H   0  0  0  0  0  0  0  0  0  0  0  0
  134.1860  124.6132  121.7032 H   0  0  0  0  0  0  0  0  0  0  0  0
  133.7323  126.3061  122.2704 H   0  0  0  0  0  0  0  0  0  0  0  0
  134.8830  125.4940  124.3650 H   0  0  0  0  0  0  0  0  0  0  0  0
  136.3984  127.0122  124.0790 H   0  0  0  0  0  0  0  0  0  0  0  0
  136.9646  126.2576  122.5504 H   0  0  0  0  0  0  0  0  0  0  0  0
  135.4985  127.2954  122.5504 H   0  0  0  0  0  0  0  0  0  0  0  0
  135.8805  123.5063  122.5499 H   0  0  0  0  0  0  0  0  0  0  0  0
  137.0816  124.3367  123.6318 H   0  0  0  0  0  0  0  0  0  0  0  0
  135.5420  121.3748  123.4743 H   0  0  0  0  0  0  0  0  0  0  0  0
  134.8956  119.9409  125.4069 H   0  0  0  0  0  0  0  0  0  0  0  0
  134.5944  120.9493  127.6657 H   0  0  0  0  0  0  0  0  0  0  0  0
  134.9189  123.3976  127.9924 H   0  0  0  0  0  0  0  0  0  0  0  0
  135.5652  124.8412  126.0668 H   0  0  0  0  0  0  0  0  0  0  0  0
  130.8583  126.6486  122.6845 H   0  0  0  0  0  0  0  0  0  0  0  0
  1  2  1  0
  2  3  1  0
  3  4  2  0
  3  5  1  0
  5  6  1  0
  6  7  2  0
  7  8  1  0
  8  9  2  0
  9 10  1  0
 10 11  1  0
 11 12  1  0
 12 13  1  0
 12 14  1  0
 14 15  1  0
 15 16  2  0
 16 17  1  0
 17 18  2  0
 18 19  1  0
 19 20  2  0
  9 21  1  0
 21  5  2  0
 20 15  1  0
  1 22  1  0
  1 23  1  0
  1 24  1  0
  6 25  1  0
  7 26  1  0
  8 27  1  0
 10 28  1  0
 10 29  1  0
 11 30  1  0
 11 31  1  0
 12 32  1  1
 13 33  1  0
 13 34  1  0
 13 35  1  0
 14 36  1  0
 14 37  1  0
 16 38  1  0
 17 39  1  0
 18 40  1  0
 19 41  1  0
 20 42  1  0
 21 43  1  0
M  CHG  1  12   1
M  END
>  <meeko>  (9) 
{"is_sidechain": [false], "free_energy": -6.559, "intermolecular_energy": -10.727, "internal_energy": -1.022}

$$$$
seed-5302
     RDKit          3D

 43 44  0  0  0  0  0  0  0  0999 V2000
  131.3790  128.5580  128.7760 C   0  0  0  0  0  0  0  0  0  0  0  0
  130.1950  127.9730  128.2250 O   0  0  0  0  0  0  0  0  0  0  0  0
  130.3290  127.5900  126.9310 C   0  0  0  0  0  0  0  0  0  0  0  0
  130.1340  128.2890  125.9510 O   0  0  0  0  0  0  0  0  0  0  0  0
  130.7320  126.1580  126.8500 C   0  0  0  0  0  0  0  0  0  0  0  0
  129.7930  125.1880  127.2210 C   0  0  0  0  0  0  0  0  0  0  0  0
  130.1180  123.8330  127.1500 C   0  0  0  0  0  0  0  0  0  0  0  0
  131.3860  123.4380  126.7240 C   0  0  0  0  0  0  0  0  0  0  0  0
  132.3500  124.3930  126.3710 C   0  0  0  0  0  0  0  0  0  0  0  0
  133.7210  123.9590  125.9150 C   0  0  0  0  0  0  0  0  0  0  0  0
  133.7500  122.9740  124.7370 C   0  0  0  0  0  0  0  0  0  0  0  0
  135.1180  122.7130  124.1390 N   0  0  2  0  0  0  0  0  0  0  0  0
  136.0050  121.8470  124.9880 C   0  0  0  0  0  0  0  0  0  0  0  0
  135.8240  123.9480  123.6120 C   0  0  0  0  0  0  0  0  0  0  0  0
  135.3970  124.2940  122.2090 C   0  0  0  0  0  0  0  0  0  0  0  0
  135.7520  123.4690  121.1320 C   0  0  0  0  0  0  0  0  0  0  0  0
  135.3290  123.7760  119.8380 C   0  0  0  0  0  0  0  0  0  0  0  0
  134.5500  124.9070  119.6080 C   0  0  0  0  0  0  0  0  0  0  0  0
  134.1960  125.7370  120.6690 C   0  0  0  0  0  0  0  0  0  0  0  0
  134.6170  125.4350  121.9650 C   0  0  0  0  0  0  0  0  0  0  0  0
  132.0050  125.7540  126.4180 C   0  0  0  0  0  0  0  0  0  0  0  0
  131.3244  128.5310  129.8743 H   0  0  0  0  0  0  0  0  0  0  0  0
  132.2592  127.9911  128.4386 H   0  0  0  0  0  0  0  0  0  0  0  0
  131.4635  129.6016  128.4386 H   0  0  0  0  0  0  0  0  0  0  0  0
  128.7959  125.4952  127.5696 H   0  0  0  0  0  0  0  0  0  0  0  0
  129.3724  123.0745  127.4307 H   0  0  0  0  0  0  0  0  0  0  0  0
  131.6320  122.3675  126.6644 H   0  0  0  0  0  0  0  0  0  0  0  0
  134.2787  124.8591  125.6168 H   0  0  0  0  0  0  0  0  0  0  0  0
  134.1640  123.4215  126.7664 H   0  0  0  0  0  0  0  0  0  0  0  0
  133.3446  122.0136  125.0881 H   0  0  0  0  0  0  0  0  0  0  0  0
  133.1549  123.4406  123.9381 H   0  0  0  0  0  0  0  0  0  0  0  0
  134.9330  122.1540  123.2980 H   0  0  0  0  0  0  0  0  0  0  0  0
  135.8022  122.0450  126.0508 H   0  0  0  0  0  0  0  0  0  0  0  0
  135.8037  120.7883  124.7674 H   0  0  0  0  0  0  0  0  0  0  0  0
  137.0586  122.0736  124.7674 H   0  0  0  0  0  0  0  0  0  0  0  0
  135.5924  124.7969  124.2721 H   0  0  0  0  0  0  0  0  0  0  0  0
  136.9035  123.7372  123.5936 H   0  0  0  0  0  0  0  0  0  0  0  0
  136.3676  122.5745  121.3082 H   0  0  0  0  0  0  0  0  0  0  0  0
  135.6114  123.1236  118.9986 H   0  0  0  0  0  0  0  0  0  0  0  0
  134.2141  125.1451  118.5880 H   0  0  0  0  0  0  0  0  0  0  0  0
  133.5836  126.6321  120.4852 H   0  0  0  0  0  0  0  0  0  0  0  0
  134.3361  126.0945  122.7993 H   0  0  0  0  0  0  0  0  0  0  0  0
  132.7412  126.5121  126.1126 H   0  0  0  0  0  0  0  0  0  0  0  0
  1  2  1  0
  2  3  1  0
  3  4  2  0
  3  5  1  0
  5  6  1  0
  6  7  2  0
  7  8  1  0
  8  9  2  0
  9 10  1  0
 10 11  1  0
 11 12  1  0
 12 13  1  0
 12 14  1  0
 14 15  1  0
 15 16  2  0
 16 17  1  0
 17 18  2  0
 18 19  1  0
 19 20  2  0
  9 21  1  0
 21  5  2  0
 20 15  1  0
  1 22  1  0
  1 23  1  0
  1 24  1  0
  6 25  1  0
  7 26  1  0
  8 27  1  0
 10 28  1  0
 10 29  1  0
 11 30  1  0
 11 31  1  0
 12 32  1  6
 13 33  1  0
 13 34  1  0
 13 35  1  0
 14 36  1  0
 14 37  1  0
 16 38  1  0
 17 39  1  0
 18 40  1  0
 19 41  1  0
 20 42  1  0
 21 43  1  0
M  CHG  1  12   1
M  END
>  <meeko>  (10) 
{"is_sidechain": [false], "free_energy": -6.393, "intermolecular_energy": -10.885, "internal_energy": -0.63}

$$$$
seed-5302
     RDKit          3D

 43 44  0  0  0  0  0  0  0  0999 V2000
  132.8700  120.9090  126.7060 C   0  0  0  0  0  0  0  0  0  0  0  0
  132.2820  121.9460  125.9150 O   0  0  0  0  0  0  0  0  0  0  0  0
  132.9700  123.1140  125.9510 C   0  0  0  0  0  0  0  0  0  0  0  0
  132.6720  124.1030  126.6000 O   0  0  0  0  0  0  0  0  0  0  0  0
  134.1570  123.0480  125.0540 C   0  0  0  0  0  0  0  0  0  0  0  0
  135.4240  123.2200  125.6230 C   0  0  0  0  0  0  0  0  0  0  0  0
  136.5670  123.1540  124.8260 C   0  0  0  0  0  0  0  0  0  0  0  0
  136.4530  122.9320  123.4540 C   0  0  0  0  0  0  0  0  0  0  0  0
  135.1930  122.7820  122.8580 C   0  0  0  0  0  0  0  0  0  0  0  0
  135.0750  122.5460  121.3730 C   0  0  0  0  0  0  0  0  0  0  0  0
  135.6610  123.6480  120.4760 C   0  0  0  0  0  0  0  0  0  0  0  0
  134.6440  124.5110  119.7570 N   0  0  2  0  0  0  0  0  0  0  0  0
  134.5880  124.2890  118.2710 C   0  0  0  0  0  0  0  0  0  0  0  0
  134.6790  125.9790  120.1360 C   0  0  0  0  0  0  0  0  0  0  0  0
  134.6320  126.1850  121.6270 C   0  0  0  0  0  0  0  0  0  0  0  0
  133.4250  126.0500  122.3290 C   0  0  0  0  0  0  0  0  0  0  0  0
  133.3920  126.2110  123.7150 C   0  0  0  0  0  0  0  0  0  0  0  0
  134.5610  126.5070  124.4110 C   0  0  0  0  0  0  0  0  0  0  0  0
  135.7650  126.6490  123.7250 C   0  0  0  0  0  0  0  0  0  0  0  0
  135.8030  126.4900  122.3390 C   0  0  0  0  0  0  0  0  0  0  0  0
  134.0480  122.8220  123.6720 C   0  0  0  0  0  0  0  0  0  0  0  0
  132.7379  121.1420  127.7729 H   0  0  0  0  0  0  0  0  0  0  0  0
  132.3808  119.9508  126.4766 H   0  0  0  0  0  0  0  0  0  0  0  0
  133.9434  120.8368  126.4766 H   0  0  0  0  0  0  0  0  0  0  0  0
  135.5189  123.4079  126.7027 H   0  0  0  0  0  0  0  0  0  0  0  0
  137.5609  123.2774  125.2810 H   0  0  0  0  0  0  0  0  0  0  0  0
  137.3597  122.8741  122.8339 H   0  0  0  0  0  0  0  0  0  0  0  0
  135.5953  121.6059  121.1375 H   0  0  0  0  0  0  0  0  0  0  0  0
  133.9967  122.5243  121.1569 H   0  0  0  0  0  0  0  0  0  0  0  0
  136.2789  124.3051  121.1056 H   0  0  0  0  0  0  0  0  0  0  0  0
  136.2276  123.1285  119.6891 H   0  0  0  0  0  0  0  0  0  0  0  0
  133.7330  124.1860  120.1040 H   0  0  0  0  0  0  0  0  0  0  0  0
  134.3236  123.2410  118.0665 H   0  0  0  0  0  0  0  0  0  0  0  0
  133.8288  124.9515  117.8296 H   0  0  0  0  0  0  0  0  0  0  0  0
  135.5706  124.5121  117.8296 H   0  0  0  0  0  0  0  0  0  0  0  0
  135.6070  126.4230  119.7465 H   0  0  0  0  0  0  0  0  0  0  0  0
  133.7905  126.4603  119.7014 H   0  0  0  0  0  0  0  0  0  0  0  0
  132.4988  125.8158  121.7837 H   0  0  0  0  0  0  0  0  0  0  0  0
  132.4414  126.1039  124.2581 H   0  0  0  0  0  0  0  0  0  0  0  0
  134.5338  126.6289  125.5039 H   0  0  0  0  0  0  0  0  0  0  0  0
  136.6867  126.8867  124.2763 H   0  0  0  0  0  0  0  0  0  0  0  0
  136.7558  126.6043  121.8013 H   0  0  0  0  0  0  0  0  0  0  0  0
  133.0553  122.6747  123.2217 H   0  0  0  0  0  0  0  0  0  0  0  0
  1  2  1  0
  2  3  1  0
  3  4  2  0
  3  5  1  0
  5  6  1  0
  6  7  2  0
  7  8  1  0
  8  9  2  0
  9 10  1  0
 10 11  1  0
 11 12  1  0
 12 13  1  0
 12 14  1  0
 14 15  1  0
 15 16  2  0
 16 17  1  0
 17 18  2  0
 18 19  1  0
 19 20  2  0
  9 21  1  0
 21  5  2  0
 20 15  1  0
  1 22  1  0
  1 23  1  0
  1 24  1  0
  6 25  1  0
  7 26  1  0
  8 27  1  0
 10 28  1  0
 10 29  1  0
 11 30  1  0
 11 31  1  0
 12 32  1  1
 13 33  1  0
 13 34  1  0
 13 35  1  0
 14 36  1  0
 14 37  1  0
 16 38  1  0
 17 39  1  0
 18 40  1  0
 19 41  1  0
 20 42  1  0
 21 43  1  0
M  CHG  1  12   1
M  END
>  <meeko>  (11) 
{"is_sidechain": [false], "free_energy": -6.377, "intermolecular_energy": -9.263, "internal_energy": -2.229}

$$$$
seed-5302
     RDKit          3D

 43 44  0  0  0  0  0  0  0  0999 V2000
  135.3030  120.4480  118.1830 C   0  0  0  0  0  0  0  0  0  0  0  0
  134.4010  121.2230  117.3870 O   0  0  0  0  0  0  0  0  0  0  0  0
  134.8920  122.4380  117.0350 C   0  0  0  0  0  0  0  0  0  0  0  0
  135.3180  122.7490  115.9340 O   0  0  0  0  0  0  0  0  0  0  0  0
  134.8720  123.3660  118.1990 C   0  0  0  0  0  0  0  0  0  0  0  0
  134.3930  124.6670  117.9970 C   0  0  0  0  0  0  0  0  0  0  0  0
  134.3420  125.5690  119.0590 C   0  0  0  0  0  0  0  0  0  0  0  0
  134.7820  125.1860  120.3260 C   0  0  0  0  0  0  0  0  0  0  0  0
  135.2870  123.8970  120.5460 C   0  0  0  0  0  0  0  0  0  0  0  0
  135.7650  123.4900  121.9180 C   0  0  0  0  0  0  0  0  0  0  0  0
  136.4500  124.5940  122.7390 C   0  0  0  0  0  0  0  0  0  0  0  0
  135.6850  125.0660  123.9590 N   0  0  2  0  0  0  0  0  0  0  0  0
  135.6170  126.5610  124.1020 C   0  0  0  0  0  0  0  0  0  0  0  0
  136.0570  124.3630  125.2500 C   0  0  0  0  0  0  0  0  0  0  0  0
  135.1340  123.2130  125.5600 C   0  0  0  0  0  0  0  0  0  0  0  0
  133.9060  123.4360  126.2000 C   0  0  0  0  0  0  0  0  0  0  0  0
  133.0400  122.3720  126.4570 C   0  0  0  0  0  0  0  0  0  0  0  0
  133.3920  121.0790  126.0800 C   0  0  0  0  0  0  0  0  0  0  0  0
  134.6120  120.8440  125.4500 C   0  0  0  0  0  0  0  0  0  0  0  0
  135.4810  121.9040  125.1900 C   0  0  0  0  0  0  0  0  0  0  0  0
  135.3090  122.9850  119.4770 C   0  0  0  0  0  0  0  0  0  0  0  0
  135.0966  120.6254  119.2488 H   0  0  0  0  0  0  0  0  0  0  0  0
  135.1676  119.3802  117.9560 H   0  0  0  0  0  0  0  0  0  0  0  0
  136.3382  120.7427  117.9560 H   0  0  0  0  0  0  0  0  0  0  0  0
  134.0560  124.9779  116.9971 H   0  0  0  0  0  0  0  0  0  0  0  0
  133.9537  126.5854  118.8972 H   0  0  0  0  0  0  0  0  0  0  0  0
  134.7323  125.9017  121.1598 H   0  0  0  0  0  0  0  0  0  0  0  0
  134.8936  123.1359  122.4883 H   0  0  0  0  0  0  0  0  0  0  0  0
  136.5323  122.7194  121.7522 H   0  0  0  0  0  0  0  0  0  0  0  0
  137.4243  124.2109  123.0766 H   0  0  0  0  0  0  0  0  0  0  0  0
  136.5248  125.4656  122.0721 H   0  0  0  0  0  0  0  0  0  0  0  0
  134.7150  124.7750  123.7870 H   0  0  0  0  0  0  0  0  0  0  0  0
  135.6049  126.8271  125.1693 H   0  0  0  0  0  0  0  0  0  0  0  0
  136.4954  127.0157  123.6207 H   0  0  0  0  0  0  0  0  0  0  0  0
  134.7010  126.9341  123.6207 H   0  0  0  0  0  0  0  0  0  0  0  0
  137.0838  123.9786  125.1606 H   0  0  0  0  0  0  0  0  0  0  0  0
  135.9720  125.0934  126.0681 H   0  0  0  0  0  0  0  0  0  0  0  0
  133.6237  124.4556  126.5012 H   0  0  0  0  0  0  0  0  0  0  0  0
  132.0781  122.5554  126.9581 H   0  0  0  0  0  0  0  0  0  0  0  0
  132.7064  120.2423  126.2797 H   0  0  0  0  0  0  0  0  0  0  0  0
  134.8906  119.8210  125.1570 H   0  0  0  0  0  0  0  0  0  0  0  0
  136.4433  121.7131  124.6924 H   0  0  0  0  0  0  0  0  0  0  0  0
  135.6730  121.9605  119.6440 H   0  0  0  0  0  0  0  0  0  0  0  0
  1  2  1  0
  2  3  1  0
  3  4  2  0
  3  5  1  0
  5  6  1  0
  6  7  2  0
  7  8  1  0
  8  9  2  0
  9 10  1  0
 10 11  1  0
 11 12  1  0
 12 13  1  0
 12 14  1  0
 14 15  1  0
 15 16  2  0
 16 17  1  0
 17 18  2  0
 18 19  1  0
 19 20  2  0
  9 21  1  0
 21  5  2  0
 20 15  1  0
  1 22  1  0
  1 23  1  0
  1 24  1  0
  6 25  1  0
  7 26  1  0
  8 27  1  0
 10 28  1  0
 10 29  1  0
 11 30  1  0
 11 31  1  0
 12 32  1  6
 13 33  1  0
 13 34  1  0
 13 35  1  0
 14 36  1  0
 14 37  1  0
 16 38  1  0
 17 39  1  0
 18 40  1  0
 19 41  1  0
 20 42  1  0
 21 43  1  0
M  CHG  1  12   1
M  END
>  <meeko>  (12) 
{"is_sidechain": [false], "free_energy": -6.242, "intermolecular_energy": -11.386, "internal_energy": 0.084}

$$$$
seed-5302
     RDKit          3D

 43 44  0  0  0  0  0  0  0  0999 V2000
  128.4380  125.7120  126.1970 C   0  0  0  0  0  0  0  0  0  0  0  0
  129.3920  125.4760  127.2370 O   0  0  0  0  0  0  0  0  0  0  0  0
  129.7460  124.1720  127.3650 C   0  0  0  0  0  0  0  0  0  0  0  0
  129.0980  123.3040  127.9250 O   0  0  0  0  0  0  0  0  0  0  0  0
  131.0760  123.9300  126.7400 C   0  0  0  0  0  0  0  0  0  0  0  0
  131.5780  122.6230  126.7450 C   0  0  0  0  0  0  0  0  0  0  0  0
  132.8130  122.3430  126.1610 C   0  0  0  0  0  0  0  0  0  0  0  0
  133.5630  123.3670  125.5820 C   0  0  0  0  0  0  0  0  0  0  0  0
  133.0910  124.6870  125.5870 C   0  0  0  0  0  0  0  0  0  0  0  0
  133.9090  125.7910  124.9630 C   0  0  0  0  0  0  0  0  0  0  0  0
  134.0020  125.7650  123.4300 C   0  0  0  0  0  0  0  0  0  0  0  0
  135.2790  125.1730  122.8660 N   0  0  2  0  0  0  0  0  0  0  0  0
  136.4010  125.0720  123.8590 C   0  0  0  0  0  0  0  0  0  0  0  0
  135.7140  125.7600  121.5360 C   0  0  0  0  0  0  0  0  0  0  0  0
  135.3560  124.8690  120.3750 C   0  0  0  0  0  0  0  0  0  0  0  0
  134.5870  125.3600  119.3100 C   0  0  0  0  0  0  0  0  0  0  0  0
  134.2840  124.5410  118.2210 C   0  0  0  0  0  0  0  0  0  0  0  0
  134.7440  123.2280  118.1860 C   0  0  0  0  0  0  0  0  0  0  0  0
  135.5050  122.7270  119.2410 C   0  0  0  0  0  0  0  0  0  0  0  0
  135.8100  123.5420  120.3320 C   0  0  0  0  0  0  0  0  0  0  0  0
  131.8330  124.9560  126.1530 C   0  0  0  0  0  0  0  0  0  0  0  0
  127.4618  125.9535  126.6428 H   0  0  0  0  0  0  0  0  0  0  0  0
  128.7751  126.5538  125.5743 H   0  0  0  0  0  0  0  0  0  0  0  0
  128.3437  124.8101  125.5743 H   0  0  0  0  0  0  0  0  0  0  0  0
  130.9962  121.8142  127.2112 H   0  0  0  0  0  0  0  0  0  0  0  0
  133.1968  121.3121  126.1569 H   0  0  0  0  0  0  0  0  0  0  0  0
  134.5331  123.1366  125.1175 H   0  0  0  0  0  0  0  0  0  0  0  0
  133.4617  126.7516  125.2584 H   0  0  0  0  0  0  0  0  0  0  0  0
  134.9364  125.6467  125.3286 H   0  0  0  0  0  0  0  0  0  0  0  0
  133.1565  125.1737  123.0487 H   0  0  0  0  0  0  0  0  0  0  0  0
  133.9871  126.8166  123.1075 H   0  0  0  0  0  0  0  0  0  0  0  0
  135.0380  124.2000  122.6420 H   0  0  0  0  0  0  0  0  0  0  0  0
  135.9919  125.1088  124.8794 H   0  0  0  0  0  0  0  0  0  0  0  0
  136.9359  124.1221  123.7125 H   0  0  0  0  0  0  0  0  0  0  0  0
  137.0970  125.9111  123.7125 H   0  0  0  0  0  0  0  0  0  0  0  0
  135.2205  126.7337  121.4004 H   0  0  0  0  0  0  0  0  0  0  0  0
  136.8088  125.8647  121.5556 H   0  0  0  0  0  0  0  0  0  0  0  0
  134.2204  126.3968  119.3329 H   0  0  0  0  0  0  0  0  0  0  0  0
  133.6808  124.9340  117.3893 H   0  0  0  0  0  0  0  0  0  0  0  0
  134.5070  122.5852  117.3254 H   0  0  0  0  0  0  0  0  0  0  0  0
  135.8655  121.6881  119.2135 H   0  0  0  0  0  0  0  0  0  0  0  0
  136.4096  123.1419  121.1629 H   0  0  0  0  0  0  0  0  0  0  0  0
  131.4371  125.9822  126.1358 H   0  0  0  0  0  0  0  0  0  0  0  0
  1  2  1  0
  2  3  1  0
  3  4  2  0
  3  5  1  0
  5  6  1  0
  6  7  2  0
  7  8  1  0
  8  9  2  0
  9 10  1  0
 10 11  1  0
 11 12  1  0
 12 13  1  0
 12 14  1  0
 14 15  1  0
 15 16  2  0
 16 17  1  0
 17 18  2  0
 18 19  1  0
 19 20  2  0
  9 21  1  0
 21  5  2  0
 20 15  1  0
  1 22  1  0
  1 23  1  0
  1 24  1  0
  6 25  1  0
  7 26  1  0
  8 27  1  0
 10 28  1  0
 10 29  1  0
 11 30  1  0
 11 31  1  0
 12 32  1  6
 13 33  1  0
 13 34  1  0
 13 35  1  0
 14 36  1  0
 14 37  1  0
 16 38  1  0
 17 39  1  0
 18 40  1  0
 19 41  1  0
 20 42  1  0
 21 43  1  0
M  CHG  1  12   1
M  END
>  <meeko>  (13) 
{"is_sidechain": [false], "free_energy": -6.114, "intermolecular_energy": -10.664, "internal_energy": -0.458}

$$$$
seed-5302
     RDKit          3D

 43 44  0  0  0  0  0  0  0  0999 V2000
  131.6490  128.8290  129.0030 C   0  0  0  0  0  0  0  0  0  0  0  0
  130.8330  128.4310  127.8970 O   0  0  0  0  0  0  0  0  0  0  0  0
  130.1770  127.2610  128.0980 C   0  0  0  0  0  0  0  0  0  0  0  0
  129.2920  127.0640  128.9140 O   0  0  0  0  0  0  0  0  0  0  0  0
  130.7040  126.2060  127.1890 C   0  0  0  0  0  0  0  0  0  0  0  0
  130.1870  124.9100  127.3120 C   0  0  0  0  0  0  0  0  0  0  0  0
  130.6400  123.8910  126.4750 C   0  0  0  0  0  0  0  0  0  0  0  0
  131.6220  124.1520  125.5200 C   0  0  0  0  0  0  0  0  0  0  0  0
  132.1720  125.4360  125.3940 C   0  0  0  0  0  0  0  0  0  0  0  0
  133.2370  125.7110  124.3620 C   0  0  0  0  0  0  0  0  0  0  0  0
  133.2260  124.7900  123.1330 C   0  0  0  0  0  0  0  0  0  0  0  0
  134.5450  124.1140  122.8160 N   0  0  2  0  0  0  0  0  0  0  0  0
  135.3180  123.6730  124.0270 C   0  0  0  0  0  0  0  0  0  0  0  0
  135.4020  124.8440  121.7990 C   0  0  0  0  0  0  0  0  0  0  0  0
  135.1470  124.3690  120.3920 C   0  0  0  0  0  0  0  0  0  0  0  0
  135.5760  123.0990  119.9780 C   0  0  0  0  0  0  0  0  0  0  0  0
  135.3100  122.6510  118.6830 C   0  0  0  0  0  0  0  0  0  0  0  0
  134.6160  123.4650  117.7920 C   0  0  0  0  0  0  0  0  0  0  0  0
  134.1900  124.7300  118.1890 C   0  0  0  0  0  0  0  0  0  0  0  0
  134.4530  125.1830  119.4820 C   0  0  0  0  0  0  0  0  0  0  0  0
  131.6900  126.4640  126.2230 C   0  0  0  0  0  0  0  0  0  0  0  0
  131.1376  128.5796  129.9444 H   0  0  0  0  0  0  0  0  0  0  0  0
  132.6121  128.2994  128.9574 H   0  0  0  0  0  0  0  0  0  0  0  0
  131.8246  129.9139  128.9574 H   0  0  0  0  0  0  0  0  0  0  0  0
  129.4209  124.6954  128.0716 H   0  0  0  0  0  0  0  0  0  0  0  0
  130.2214  122.8780  126.5683 H   0  0  0  0  0  0  0  0  0  0  0  0
  131.9684  123.3435  124.8595 H   0  0  0  0  0  0  0  0  0  0  0  0
  133.1082  126.7454  124.0105 H   0  0  0  0  0  0  0  0  0  0  0  0
  134.1976  125.5279  124.8658 H   0  0  0  0  0  0  0  0  0  0  0  0
  132.4746  124.0050  123.3038 H   0  0  0  0  0  0  0  0  0  0  0  0
  133.0017  125.4363  122.2716 H   0  0  0  0  0  0  0  0  0  0  0  0
  134.2840  123.2410  122.3400 H   0  0  0  0  0  0  0  0  0  0  0  0
  134.7807  123.9795  124.9366 H   0  0  0  0  0  0  0  0  0  0  0  0
  135.4245  122.5782  124.0154 H   0  0  0  0  0  0  0  0  0  0  0  0
  136.3146  124.1385  124.0154 H   0  0  0  0  0  0  0  0  0  0  0  0
  135.1791  125.9197  121.8553 H   0  0  0  0  0  0  0  0  0  0  0  0
  136.4561  124.6398  122.0379 H   0  0  0  0  0  0  0  0  0  0  0  0
  136.1253  122.4524  120.6781 H   0  0  0  0  0  0  0  0  0  0  0  0
  135.6491  121.6537  118.3662 H   0  0  0  0  0  0  0  0  0  0  0  0
  134.4039  123.1085  116.7732 H   0  0  0  0  0  0  0  0  0  0  0  0
  133.6453  125.3730  117.4820 H   0  0  0  0  0  0  0  0  0  0  0  0
  134.1149  126.1833  119.7905 H   0  0  0  0  0  0  0  0  0  0  0  0
  132.0901  127.4828  126.1136 H   0  0  0  0  0  0  0  0  0  0  0  0
  1  2  1  0
  2  3  1  0
  3  4  2  0
  3  5  1  0
  5  6  1  0
  6  7  2  0
  7  8  1  0
  8  9  2  0
  9 10  1  0
 10 11  1  0
 11 12  1  0
 12 13  1  0
 12 14  1  0
 14 15  1  0
 15 16  2  0
 16 17  1  0
 17 18  2  0
 18 19  1  0
 19 20  2  0
  9 21  1  0
 21  5  2  0
 20 15  1  0
  1 22  1  0
  1 23  1  0
  1 24  1  0
  6 25  1  0
  7 26  1  0
  8 27  1  0
 10 28  1  0
 10 29  1  0
 11 30  1  0
 11 31  1  0
 12 32  1  6
 13 33  1  0
 13 34  1  0
 13 35  1  0
 14 36  1  0
 14 37  1  0
 16 38  1  0
 17 39  1  0
 18 40  1  0
 19 41  1  0
 20 42  1  0
 21 43  1  0
M  CHG  1  12   1
M  END
>  <meeko>  (14) 
{"is_sidechain": [false], "free_energy": -6.106, "intermolecular_energy": -10.605, "internal_energy": -0.505}

$$$$
seed-5302
     RDKit          3D

 43 44  0  0  0  0  0  0  0  0999 V2000
  134.9180  123.6250  117.9630 C   0  0  0  0  0  0  0  0  0  0  0  0
  135.4570  123.6420  119.2880 O   0  0  0  0  0  0  0  0  0  0  0  0
  134.9170  124.5990  120.0830 C   0  0  0  0  0  0  0  0  0  0  0  0
  134.3820  125.6290  119.7060 O   0  0  0  0  0  0  0  0  0  0  0  0
  135.0840  124.2400  121.5190 C   0  0  0  0  0  0  0  0  0  0  0  0
  136.0510  123.2830  121.8500 C   0  0  0  0  0  0  0  0  0  0  0  0
  136.2540  122.9230  123.1820 C   0  0  0  0  0  0  0  0  0  0  0  0
  135.4860  123.5030  124.1910 C   0  0  0  0  0  0  0  0  0  0  0  0
  134.4960  124.4470  123.8800 C   0  0  0  0  0  0  0  0  0  0  0  0
  133.6650  125.0680  124.9750 C   0  0  0  0  0  0  0  0  0  0  0  0
  133.5940  124.2740  126.2890 C   0  0  0  0  0  0  0  0  0  0  0  0
  132.3730  123.3920  126.4520 N   0  0  2  0  0  0  0  0  0  0  0  0
  132.6030  121.9500  126.0990 C   0  0  0  0  0  0  0  0  0  0  0  0
  131.1010  123.9550  125.8460 C   0  0  0  0  0  0  0  0  0  0  0  0
  130.2430  124.6550  126.8680 C   0  0  0  0  0  0  0  0  0  0  0  0
  130.4800  125.9970  127.1990 C   0  0  0  0  0  0  0  0  0  0  0  0
  129.6640  126.6510  128.1230 C   0  0  0  0  0  0  0  0  0  0  0  0
  128.6060  125.9730  128.7230 C   0  0  0  0  0  0  0  0  0  0  0  0
  128.3640  124.6380  128.4070 C   0  0  0  0  0  0  0  0  0  0  0  0
  129.1780  123.9790  127.4840 C   0  0  0  0  0  0  0  0  0  0  0  0
  134.3160  124.8240  122.5380 C   0  0  0  0  0  0  0  0  0  0  0  0
  133.8197  123.5904  118.0143 H   0  0  0  0  0  0  0  0  0  0  0  0
  135.2316  124.5335  117.4279 H   0  0  0  0  0  0  0  0  0  0  0  0
  135.2882  122.7381  117.4279 H   0  0  0  0  0  0  0  0  0  0  0  0
  136.6522  122.8138  121.0573 H   0  0  0  0  0  0  0  0  0  0  0  0
  137.0227  122.1788  123.4375 H   0  0  0  0  0  0  0  0  0  0  0  0
  135.6578  123.2180  125.2395 H   0  0  0  0  0  0  0  0  0  0  0  0
  134.0884  126.0578  125.2006 H   0  0  0  0  0  0  0  0  0  0  0  0
  132.6357  125.1009  124.5884 H   0  0  0  0  0  0  0  0  0  0  0  0
  134.4857  123.6325  126.3461 H   0  0  0  0  0  0  0  0  0  0  0  0
  133.5352  125.0233  127.0922 H   0  0  0  0  0  0  0  0  0  0  0  0
  132.1860  123.3880  127.4620 H   0  0  0  0  0  0  0  0  0  0  0  0
  132.6975  121.3574  127.0209 H   0  0  0  0  0  0  0  0  0  0  0  0
  131.7530  121.5769  125.5088 H   0  0  0  0  0  0  0  0  0  0  0  0
  133.5269  121.8598  125.5088 H   0  0  0  0  0  0  0  0  0  0  0  0
  131.3720  124.6742  125.0591 H   0  0  0  0  0  0  0  0  0  0  0  0
  130.5210  123.1139  125.4383 H   0  0  0  0  0  0  0  0  0  0  0  0
  131.3141  126.5373  126.7275 H   0  0  0  0  0  0  0  0  0  0  0  0
  129.8568  127.7036  128.3777 H   0  0  0  0  0  0  0  0  0  0  0  0
  127.9608  126.4920  129.4471 H   0  0  0  0  0  0  0  0  0  0  0  0
  127.5306  124.1026  128.8853 H   0  0  0  0  0  0  0  0  0  0  0  0
  128.9839  122.9245  127.2381 H   0  0  0  0  0  0  0  0  0  0  0  0
  133.5643  125.5857  122.2835 H   0  0  0  0  0  0  0  0  0  0  0  0
  1  2  1  0
  2  3  1  0
  3  4  2  0
  3  5  1  0
  5  6  1  0
  6  7  2  0
  7  8  1  0
  8  9  2  0
  9 10  1  0
 10 11  1  0
 11 12  1  0
 12 13  1  0
 12 14  1  0
 14 15  1  0
 15 16  2  0
 16 17  1  0
 17 18  2  0
 18 19  1  0
 19 20  2  0
  9 21  1  0
 21  5  2  0
 20 15  1  0
  1 22  1  0
  1 23  1  0
  1 24  1  0
  6 25  1  0
  7 26  1  0
  8 27  1  0
 10 28  1  0
 10 29  1  0
 11 30  1  0
 11 31  1  0
 12 32  1  1
 13 33  1  0
 13 34  1  0
 13 35  1  0
 14 36  1  0
 14 37  1  0
 16 38  1  0
 17 39  1  0
 18 40  1  0
 19 41  1  0
 20 42  1  0
 21 43  1  0
M  CHG  1  12   1
M  END
>  <meeko>  (15) 
{"is_sidechain": [false], "free_energy": -6.038, "intermolecular_energy": -10.351, "internal_energy": -0.665}

$$$$
seed-5302
     RDKit          3D

 43 44  0  0  0  0  0  0  0  0999 V2000
  134.0290  124.2100  117.8250 C   0  0  0  0  0  0  0  0  0  0  0  0
  135.3350  124.1270  118.4030 O   0  0  0  0  0  0  0  0  0  0  0  0
  135.4090  123.2840  119.4630 C   0  0  0  0  0  0  0  0  0  0  0  0
  135.4150  122.0660  119.4130 O   0  0  0  0  0  0  0  0  0  0  0  0
  135.4560  124.0530  120.7380 C   0  0  0  0  0  0  0  0  0  0  0  0
  136.2860  125.1790  120.7990 C   0  0  0  0  0  0  0  0  0  0  0  0
  136.3540  125.9380  121.9670 C   0  0  0  0  0  0  0  0  0  0  0  0
  135.6070  125.5720  123.0860 C   0  0  0  0  0  0  0  0  0  0  0  0
  134.7880  124.4350  123.0560 C   0  0  0  0  0  0  0  0  0  0  0  0
  133.9850  124.0410  124.2710 C   0  0  0  0  0  0  0  0  0  0  0  0
  132.4860  123.8060  124.0310 C   0  0  0  0  0  0  0  0  0  0  0  0
  131.5560  124.7940  124.7070 N   0  0  2  0  0  0  0  0  0  0  0  0
  131.3790  126.0840  123.9560 C   0  0  0  0  0  0  0  0  0  0  0  0
  131.8190  125.0000  126.1860 C   0  0  0  0  0  0  0  0  0  0  0  0
  130.5460  125.0570  126.9900 C   0  0  0  0  0  0  0  0  0  0  0  0
  129.7920  123.8960  127.2160 C   0  0  0  0  0  0  0  0  0  0  0  0
  128.6300  123.9470  127.9870 C   0  0  0  0  0  0  0  0  0  0  0  0
  128.2100  125.1550  128.5370 C   0  0  0  0  0  0  0  0  0  0  0  0
  128.9460  126.3160  128.3150 C   0  0  0  0  0  0  0  0  0  0  0  0
  130.1090  126.2700  127.5440 C   0  0  0  0  0  0  0  0  0  0  0  0
  134.7030  123.6910  121.8670 C   0  0  0  0  0  0  0  0  0  0  0  0
  133.2761  124.2578  118.6255 H   0  0  0  0  0  0  0  0  0  0  0  0
  133.9603  125.1143  117.2025 H   0  0  0  0  0  0  0  0  0  0  0  0
  133.8464  123.3216  117.2025 H   0  0  0  0  0  0  0  0  0  0  0  0
  136.8863  125.4658  119.9230 H   0  0  0  0  0  0  0  0  0  0  0  0
  136.9990  126.8282  122.0056 H   0  0  0  0  0  0  0  0  0  0  0  0
  135.6609  126.1810  124.0004 H   0  0  0  0  0  0  0  0  0  0  0  0
  134.4131  123.1104  124.6719 H   0  0  0  0  0  0  0  0  0  0  0  0
  134.0479  124.8947  124.9619 H   0  0  0  0  0  0  0  0  0  0  0  0
  132.3040  123.8557  122.9473 H   0  0  0  0  0  0  0  0  0  0  0  0
  132.2587  122.8248  124.4732 H   0  0  0  0  0  0  0  0  0  0  0  0
  130.6320  124.3450  124.6780 H   0  0  0  0  0  0  0  0  0  0  0  0
  131.2654  126.9120  124.6712 H   0  0  0  0  0  0  0  0  0  0  0  0
  132.2608  126.2641  123.3236 H   0  0  0  0  0  0  0  0  0  0  0  0
  130.4812  126.0199  123.3236 H   0  0  0  0  0  0  0  0  0  0  0  0
  132.4339  124.1662  126.5556 H   0  0  0  0  0  0  0  0  0  0  0  0
  132.3360  125.9636  126.3051 H   0  0  0  0  0  0  0  0  0  0  0  0
  130.1188  122.9392  126.7827 H   0  0  0  0  0  0  0  0  0  0  0  0
  128.0452  123.0316  128.1604 H   0  0  0  0  0  0  0  0  0  0  0  0
  127.2958  125.1923  129.1476 H   0  0  0  0  0  0  0  0  0  0  0  0
  128.6108  127.2703  128.7475 H   0  0  0  0  0  0  0  0  0  0  0  0
  130.6862  127.1900  127.3697 H   0  0  0  0  0  0  0  0  0  0  0  0
  134.0392  122.8151  121.8199 H   0  0  0  0  0  0  0  0  0  0  0  0
  1  2  1  0
  2  3  1  0
  3  4  2  0
  3  5  1  0
  5  6  1  0
  6  7  2  0
  7  8  1  0
  8  9  2  0
  9 10  1  0
 10 11  1  0
 11 12  1  0
 12 13  1  0
 12 14  1  0
 14 15  1  0
 15 16  2  0
 16 17  1  0
 17 18  2  0
 18 19  1  0
 19 20  2  0
  9 21  1  0
 21  5  2  0
 20 15  1  0
  1 22  1  0
  1 23  1  0
  1 24  1  0
  6 25  1  0
  7 26  1  0
  8 27  1  0
 10 28  1  0
 10 29  1  0
 11 30  1  0
 11 31  1  0
 12 32  1  1
 13 33  1  0
 13 34  1  0
 13 35  1  0
 14 36  1  0
 14 37  1  0
 16 38  1  0
 17 39  1  0
 18 40  1  0
 19 41  1  0
 20 42  1  0
 21 43  1  0
M  CHG  1  12   1
M  END
>  <meeko>  (16) 
{"is_sidechain": [false], "free_energy": -5.995, "intermolecular_energy": -10.43, "internal_energy": -0.525}

$$$$
seed-5302
     RDKit          3D

 43 44  0  0  0  0  0  0  0  0999 V2000
  127.3340  128.3940  122.5300 C   0  0  0  0  0  0  0  0  0  0  0  0
  128.5640  127.8130  122.9730 O   0  0  0  0  0  0  0  0  0  0  0  0
  129.2990  128.6320  123.7660 C   0  0  0  0  0  0  0  0  0  0  0  0
  129.2990  129.8520  123.7350 O   0  0  0  0  0  0  0  0  0  0  0  0
  130.1520  127.8360  124.6910 C   0  0  0  0  0  0  0  0  0  0  0  0
  130.1150  128.1470  126.0560 C   0  0  0  0  0  0  0  0  0  0  0  0
  130.8850  127.4210  126.9630 C   0  0  0  0  0  0  0  0  0  0  0  0
  131.7100  126.3890  126.5150 C   0  0  0  0  0  0  0  0  0  0  0  0
  131.7820  126.0760  125.1500 C   0  0  0  0  0  0  0  0  0  0  0  0
  132.6790  124.9620  124.6710 C   0  0  0  0  0  0  0  0  0  0  0  0
  134.1030  125.3800  124.2710 C   0  0  0  0  0  0  0  0  0  0  0  0
  134.9750  124.2710  123.7160 N   0  0  2  0  0  0  0  0  0  0  0  0
  135.5380  123.3490  124.7600 C   0  0  0  0  0  0  0  0  0  0  0  0
  136.0110  124.7260  122.7060 C   0  0  0  0  0  0  0  0  0  0  0  0
  135.5680  124.4880  121.2860 C   0  0  0  0  0  0  0  0  0  0  0  0
  134.8920  125.4870  120.5720 C   0  0  0  0  0  0  0  0  0  0  0  0
  134.5110  125.2740  119.2470 C   0  0  0  0  0  0  0  0  0  0  0  0
  134.8010  124.0630  118.6240 C   0  0  0  0  0  0  0  0  0  0  0  0
  135.4670  123.0600  119.3240 C   0  0  0  0  0  0  0  0  0  0  0  0
  135.8500  123.2680  120.6500 C   0  0  0  0  0  0  0  0  0  0  0  0
  130.9810  126.7940  124.2460 C   0  0  0  0  0  0  0  0  0  0  0  0
  126.7284  128.6801  123.4026 H   0  0  0  0  0  0  0  0  0  0  0  0
  127.5475  129.2864  121.9234 H   0  0  0  0  0  0  0  0  0  0  0  0
  126.7803  127.6622  121.9234 H   0  0  0  0  0  0  0  0  0  0  0  0
  129.4757  128.9676  126.4138 H   0  0  0  0  0  0  0  0  0  0  0  0
  130.8421  127.6624  128.0353 H   0  0  0  0  0  0  0  0  0  0  0  0
  132.3089  125.8162  127.2384 H   0  0  0  0  0  0  0  0  0  0  0  0
  132.7587  124.2205  125.4796 H   0  0  0  0  0  0  0  0  0  0  0  0
  132.2115  124.5729  123.7545 H   0  0  0  0  0  0  0  0  0  0  0  0
  134.0235  126.1649  123.5044 H   0  0  0  0  0  0  0  0  0  0  0  0
  134.5920  125.7147  125.1978 H   0  0  0  0  0  0  0  0  0  0  0  0
  134.3340  123.6850  123.1670 H   0  0  0  0  0  0  0  0  0  0  0  0
  135.2998  123.7391  125.7606 H   0  0  0  0  0  0  0  0  0  0  0  0
  135.0967  122.3484  124.6419 H   0  0  0  0  0  0  0  0  0  0  0  0
  136.6297  123.2845  124.6419 H   0  0  0  0  0  0  0  0  0  0  0  0
  136.1914  125.8022  122.8446 H   0  0  0  0  0  0  0  0  0  0  0  0
  136.9264  124.1401  122.8756 H   0  0  0  0  0  0  0  0  0  0  0  0
  134.6604  126.4454  121.0597 H   0  0  0  0  0  0  0  0  0  0  0  0
  133.9810  126.0634  118.6939 H   0  0  0  0  0  0  0  0  0  0  0  0
  134.5037  123.8983  117.5778 H   0  0  0  0  0  0  0  0  0  0  0  0
  135.6915  122.1025  118.8312 H   0  0  0  0  0  0  0  0  0  0  0  0
  136.3751  122.4727  121.1994 H   0  0  0  0  0  0  0  0  0  0  0  0
  131.0037  126.5366  123.1768 H   0  0  0  0  0  0  0  0  0  0  0  0
  1  2  1  0
  2  3  1  0
  3  4  2  0
  3  5  1  0
  5  6  1  0
  6  7  2  0
  7  8  1  0
  8  9  2  0
  9 10  1  0
 10 11  1  0
 11 12  1  0
 12 13  1  0
 12 14  1  0
 14 15  1  0
 15 16  2  0
 16 17  1  0
 17 18  2  0
 18 19  1  0
 19 20  2  0
  9 21  1  0
 21  5  2  0
 20 15  1  0
  1 22  1  0
  1 23  1  0
  1 24  1  0
  6 25  1  0
  7 26  1  0
  8 27  1  0
 10 28  1  0
 10 29  1  0
 11 30  1  0
 11 31  1  0
 12 32  1  6
 13 33  1  0
 13 34  1  0
 13 35  1  0
 14 36  1  0
 14 37  1  0
 16 38  1  0
 17 39  1  0
 18 40  1  0
 19 41  1  0
 20 42  1  0
 21 43  1  0
M  CHG  1  12   1
M  END
>  <meeko>  (17) 
{"is_sidechain": [false], "free_energy": -5.983, "intermolecular_energy": -10.451, "internal_energy": -0.487}

$$$$
seed-5302
     RDKit          3D

 43 44  0  0  0  0  0  0  0  0999 V2000
  126.9380  124.7480  128.1930 C   0  0  0  0  0  0  0  0  0  0  0  0
  128.2760  125.0770  128.5780 O   0  0  0  0  0  0  0  0  0  0  0  0
  129.2250  124.4790  127.8150 C   0  0  0  0  0  0  0  0  0  0  0  0
  129.3650  123.2780  127.6530 O   0  0  0  0  0  0  0  0  0  0  0  0
  130.1190  125.5000  127.2000 C   0  0  0  0  0  0  0  0  0  0  0  0
  130.2050  126.7560  127.8130 C   0  0  0  0  0  0  0  0  0  0  0  0
  131.0380  127.7400  127.2830 C   0  0  0  0  0  0  0  0  0  0  0  0
  131.7800  127.4840  126.1290 C   0  0  0  0  0  0  0  0  0  0  0  0
  131.6910  126.2420  125.4850 C   0  0  0  0  0  0  0  0  0  0  0  0
  132.4910  125.9720  124.2350 C   0  0  0  0  0  0  0  0  0  0  0  0
  133.7530  125.1160  124.4250 C   0  0  0  0  0  0  0  0  0  0  0  0
  135.0140  125.6650  123.7880 N   0  0  2  0  0  0  0  0  0  0  0  0
  135.8810  126.4590  124.7250 C   0  0  0  0  0  0  0  0  0  0  0  0
  134.8010  126.3520  122.4530 C   0  0  0  0  0  0  0  0  0  0  0  0
  134.9650  125.4050  121.2920 C   0  0  0  0  0  0  0  0  0  0  0  0
  134.2720  125.6220  120.0920 C   0  0  0  0  0  0  0  0  0  0  0  0
  134.4510  124.7600  119.0080 C   0  0  0  0  0  0  0  0  0  0  0  0
  135.3190  123.6770  119.1130 C   0  0  0  0  0  0  0  0  0  0  0  0
  136.0090  123.4480  120.3020 C   0  0  0  0  0  0  0  0  0  0  0  0
  135.8340  124.3070  121.3880 C   0  0  0  0  0  0  0  0  0  0  0  0
  130.8700  125.2460  126.0420 C   0  0  0  0  0  0  0  0  0  0  0  0
  126.3241  124.5970  129.0931 H   0  0  0  0  0  0  0  0  0  0  0  0
  126.5161  125.5692  127.5949 H   0  0  0  0  0  0  0  0  0  0  0  0
  126.9450  123.8248  127.5949 H   0  0  0  0  0  0  0  0  0  0  0  0
  129.6132  126.9669  128.7159 H   0  0  0  0  0  0  0  0  0  0  0  0
  131.1107  128.7208  127.7756 H   0  0  0  0  0  0  0  0  0  0  0  0
  132.4404  128.2635  125.7213 H   0  0  0  0  0  0  0  0  0  0  0  0
  131.8356  125.4541  123.5193 H   0  0  0  0  0  0  0  0  0  0  0  0
  132.8436  126.9538  123.8861 H   0  0  0  0  0  0  0  0  0  0  0  0
  133.9349  125.0150  125.5051 H   0  0  0  0  0  0  0  0  0  0  0  0
  133.5497  124.1606  123.9192 H   0  0  0  0  0  0  0  0  0  0  0  0
  135.5720  124.8350  123.5550 H   0  0  0  0  0  0  0  0  0  0  0  0
  135.6158  126.2161  125.7645 H   0  0  0  0  0  0  0  0  0  0  0  0
  136.9374  126.2086  124.5480 H   0  0  0  0  0  0  0  0  0  0  0  0
  135.7242  127.5333  124.5480 H   0  0  0  0  0  0  0  0  0  0  0  0
  133.7838  126.7699  122.4281 H   0  0  0  0  0  0  0  0  0  0  0  0
  135.5609  127.1412  122.3546 H   0  0  0  0  0  0  0  0  0  0  0  0
  133.5839  126.4757  120.0043 H   0  0  0  0  0  0  0  0  0  0  0  0
  133.9051  124.9372  118.0696 H   0  0  0  0  0  0  0  0  0  0  0  0
  135.4605  123.0012  118.2567 H   0  0  0  0  0  0  0  0  0  0  0  0
  136.6920  122.5897  120.3846 H   0  0  0  0  0  0  0  0  0  0  0  0
  136.3804  124.1224  122.3247 H   0  0  0  0  0  0  0  0  0  0  0  0
  130.8156  124.2564  125.5648 H   0  0  0  0  0  0  0  0  0  0  0  0
  1  2  1  0
  2  3  1  0
  3  4  2  0
  3  5  1  0
  5  6  1  0
  6  7  2  0
  7  8  1  0
  8  9  2  0
  9 10  1  0
 10 11  1  0
 11 12  1  0
 12 13  1  0
 12 14  1  0
 14 15  1  0
 15 16  2  0
 16 17  1  0
 17 18  2  0
 18 19  1  0
 19 20  2  0
  9 21  1  0
 21  5  2  0
 20 15  1  0
  1 22  1  0
  1 23  1  0
  1 24  1  0
  6 25  1  0
  7 26  1  0
  8 27  1  0
 10 28  1  0
 10 29  1  0
 11 30  1  0
 11 31  1  0
 12 32  1  6
 13 33  1  0
 13 34  1  0
 13 35  1  0
 14 36  1  0
 14 37  1  0
 16 38  1  0
 17 39  1  0
 18 40  1  0
 19 41  1  0
 20 42  1  0
 21 43  1  0
M  CHG  1  12   1
M  END
>  <meeko>  (18) 
{"is_sidechain": [false], "free_energy": -5.944, "intermolecular_energy": -10.309, "internal_energy": -0.574}

$$$$
seed-5302
     RDKit          3D

 43 44  0  0  0  0  0  0  0  0999 V2000
  131.8850  128.9850  129.1770 C   0  0  0  0  0  0  0  0  0  0  0  0
  131.7090  127.9410  128.2150 O   0  0  0  0  0  0  0  0  0  0  0  0
  130.4280  127.5050  128.1130 C   0  0  0  0  0  0  0  0  0  0  0  0
  129.6780  127.2580  129.0430 O   0  0  0  0  0  0  0  0  0  0  0  0
  130.0480  127.3330  126.6840 C   0  0  0  0  0  0  0  0  0  0  0  0
  128.7310  127.6300  126.3120 C   0  0  0  0  0  0  0  0  0  0  0  0
  128.3300  127.4980  124.9830 C   0  0  0  0  0  0  0  0  0  0  0  0
  129.2340  127.0530  124.0180 C   0  0  0  0  0  0  0  0  0  0  0  0
  130.5510  126.7260  124.3720 C   0  0  0  0  0  0  0  0  0  0  0  0
  131.5230  126.2420  123.3250 C   0  0  0  0  0  0  0  0  0  0  0  0
  132.6590  125.3430  123.8380 C   0  0  0  0  0  0  0  0  0  0  0  0
  134.0530  125.9250  123.7190 N   0  0  2  0  0  0  0  0  0  0  0  0
  134.6300  125.8640  122.3330 C   0  0  0  0  0  0  0  0  0  0  0  0
  135.0260  125.4600  124.7860 C   0  0  0  0  0  0  0  0  0  0  0  0
  134.9090  123.9840  125.0620 C   0  0  0  0  0  0  0  0  0  0  0  0
  135.4710  123.0470  124.1820 C   0  0  0  0  0  0  0  0  0  0  0  0
  135.3870  121.6810  124.4570 C   0  0  0  0  0  0  0  0  0  0  0  0
  134.7440  121.2390  125.6090 C   0  0  0  0  0  0  0  0  0  0  0  0
  134.1770  122.1600  126.4880 C   0  0  0  0  0  0  0  0  0  0  0  0
  134.2580  123.5270  126.2180 C   0  0  0  0  0  0  0  0  0  0  0  0
  130.9550  126.8890  125.7080 C   0  0  0  0  0  0  0  0  0  0  0  0
  131.8142  128.5649  130.1911 H   0  0  0  0  0  0  0  0  0  0  0  0
  132.8737  129.4472  129.0398 H   0  0  0  0  0  0  0  0  0  0  0  0
  131.1024  129.7458  129.0398 H   0  0  0  0  0  0  0  0  0  0  0  0
  128.0103  127.9686  127.0709 H   0  0  0  0  0  0  0  0  0  0  0  0
  127.2977  127.7455  124.6946 H   0  0  0  0  0  0  0  0  0  0  0  0
  128.9110  126.9578  122.9708 H   0  0  0  0  0  0  0  0  0  0  0  0
  130.9554  125.6741  122.5731 H   0  0  0  0  0  0  0  0  0  0  0  0
  132.0100  127.1443  122.9268 H   0  0  0  0  0  0  0  0  0  0  0  0
  132.4697  125.1301  124.9005 H   0  0  0  0  0  0  0  0  0  0  0  0
  132.6489  124.4477  123.1990 H   0  0  0  0  0  0  0  0  0  0  0  0
  133.9350  126.9270  123.9100 H   0  0  0  0  0  0  0  0  0  0  0  0
  135.7222  125.7485  122.3953 H   0  0  0  0  0  0  0  0  0  0  0  0
  134.2007  125.0062  121.7945 H   0  0  0  0  0  0  0  0  0  0  0  0
  134.3896  126.7926  121.7945 H   0  0  0  0  0  0  0  0  0  0  0  0
  136.0505  125.6768  124.4492 H   0  0  0  0  0  0  0  0  0  0  0  0
  134.7870  125.9963  125.7162 H   0  0  0  0  0  0  0  0  0  0  0  0
  135.9808  123.3908  123.2699 H   0  0  0  0  0  0  0  0  0  0  0  0
  135.8299  120.9527  123.7617 H   0  0  0  0  0  0  0  0  0  0  0  0
  134.6832  120.1623  125.8261 H   0  0  0  0  0  0  0  0  0  0  0  0
  133.6648  121.8090  127.3960 H   0  0  0  0  0  0  0  0  0  0  0  0
  133.8091  124.2499  126.9151 H   0  0  0  0  0  0  0  0  0  0  0  0
  131.9939  126.6662  125.9927 H   0  0  0  0  0  0  0  0  0  0  0  0
  1  2  1  0
  2  3  1  0
  3  4  2  0
  3  5  1  0
  5  6  1  0
  6  7  2  0
  7  8  1  0
  8  9  2  0
  9 10  1  0
 10 11  1  0
 11 12  1  0
 12 13  1  0
 12 14  1  0
 14 15  1  0
 15 16  2  0
 16 17  1  0
 17 18  2  0
 18 19  1  0
 19 20  2  0
  9 21  1  0
 21  5  2  0
 20 15  1  0
  1 22  1  0
  1 23  1  0
  1 24  1  0
  6 25  1  0
  7 26  1  0
  8 27  1  0
 10 28  1  0
 10 29  1  0
 11 30  1  0
 11 31  1  0
 12 32  1  1
 13 33  1  0
 13 34  1  0
 13 35  1  0
 14 36  1  0
 14 37  1  0
 16 38  1  0
 17 39  1  0
 18 40  1  0
 19 41  1  0
 20 42  1  0
 21 43  1  0
M  CHG  1  12   1
M  END
>  <meeko>  (19) 
{"is_sidechain": [false], "free_energy": -5.938, "intermolecular_energy": -10.44, "internal_energy": -0.433}

$$$$
seed-5302
     RDKit          3D

 43 44  0  0  0  0  0  0  0  0999 V2000
  129.1560  127.7040  127.2320 C   0  0  0  0  0  0  0  0  0  0  0  0
  130.3140  127.0000  127.6900 O   0  0  0  0  0  0  0  0  0  0  0  0
  131.3410  127.0080  126.8040 C   0  0  0  0  0  0  0  0  0  0  0  0
  132.0610  127.9590  126.5480 O   0  0  0  0  0  0  0  0  0  0  0  0
  131.4710  125.6790  126.1440 C   0  0  0  0  0  0  0  0  0  0  0  0
  130.9900  124.5540  126.8250 C   0  0  0  0  0  0  0  0  0  0  0  0
  131.0770  123.2900  126.2430 C   0  0  0  0  0  0  0  0  0  0  0  0
  131.6580  123.1370  124.9840 C   0  0  0  0  0  0  0  0  0  0  0  0
  132.1690  124.2450  124.2940 C   0  0  0  0  0  0  0  0  0  0  0  0
  132.8000  124.0720  122.9350 C   0  0  0  0  0  0  0  0  0  0  0  0
  134.3340  124.1640  122.8970 C   0  0  0  0  0  0  0  0  0  0  0  0
  134.8950  125.4180  122.2580 N   0  0  2  0  0  0  0  0  0  0  0  0
  133.8520  126.4120  121.8340 C   0  0  0  0  0  0  0  0  0  0  0  0
  135.9460  125.1690  121.1930 C   0  0  0  0  0  0  0  0  0  0  0  0
  135.3890  124.4310  120.0030 C   0  0  0  0  0  0  0  0  0  0  0  0
  134.6010  125.0990  119.0540 C   0  0  0  0  0  0  0  0  0  0  0  0
  134.1130  124.4190  117.9370 C   0  0  0  0  0  0  0  0  0  0  0  0
  134.4060  123.0700  117.7590 C   0  0  0  0  0  0  0  0  0  0  0  0
  135.1830  122.3940  118.6970 C   0  0  0  0  0  0  0  0  0  0  0  0
  135.6730  123.0700  119.8160 C   0  0  0  0  0  0  0  0  0  0  0  0
  132.0520  125.5190  124.8760 C   0  0  0  0  0  0  0  0  0  0  0  0
  128.5755  128.0569  128.0971 H   0  0  0  0  0  0  0  0  0  0  0  0
  129.4676  128.5657  126.6234 H   0  0  0  0  0  0  0  0  0  0  0  0
  128.5345  127.0308  126.6234 H   0  0  0  0  0  0  0  0  0  0  0  0
  130.5418  124.6679  127.8230 H   0  0  0  0  0  0  0  0  0  0  0  0
  130.6866  122.4115  126.7777 H   0  0  0  0  0  0  0  0  0  0  0  0
  131.7157  122.1374  124.5284 H   0  0  0  0  0  0  0  0  0  0  0  0
  132.5110  123.0824  122.5514 H   0  0  0  0  0  0  0  0  0  0  0  0
  132.4336  124.9107  122.3248 H   0  0  0  0  0  0  0  0  0  0  0  0
  134.7024  124.1170  123.9324 H   0  0  0  0  0  0  0  0  0  0  0  0
  134.6720  123.3268  122.2686 H   0  0  0  0  0  0  0  0  0  0  0  0
  135.4120  125.8860  123.0130 H   0  0  0  0  0  0  0  0  0  0  0  0
  133.3854  126.8567  122.7254 H   0  0  0  0  0  0  0  0  0  0  0  0
  134.3230  127.2039  121.2330 H   0  0  0  0  0  0  0  0  0  0  0  0
  133.0837  125.9035  121.2330 H   0  0  0  0  0  0  0  0  0  0  0  0
  136.3435  126.1373  120.8547 H   0  0  0  0  0  0  0  0  0  0  0  0
  136.7351  124.5448  121.6376 H   0  0  0  0  0  0  0  0  0  0  0  0
  134.3663  126.1649  119.1909 H   0  0  0  0  0  0  0  0  0  0  0  0
  133.4963  124.9497  117.1967 H   0  0  0  0  0  0  0  0  0  0  0  0
  134.0234  122.5368  116.8762 H   0  0  0  0  0  0  0  0  0  0  0  0
  135.4106  121.3271  118.5560 H   0  0  0  0  0  0  0  0  0  0  0  0
  136.2852  122.5324  120.5551 H   0  0  0  0  0  0  0  0  0  0  0  0
  132.4200  126.4011  124.3316 H   0  0  0  0  0  0  0  0  0  0  0  0
  1  2  1  0
  2  3  1  0
  3  4  2  0
  3  5  1  0
  5  6  1  0
  6  7  2  0
  7  8  1  0
  8  9  2  0
  9 10  1  0
 10 11  1  0
 11 12  1  0
 12 13  1  0
 12 14  1  0
 14 15  1  0
 15 16  2  0
 16 17  1  0
 17 18  2  0
 18 19  1  0
 19 20  2  0
  9 21  1  0
 21  5  2  0
 20 15  1  0
  1 22  1  0
  1 23  1  0
  1 24  1  0
  6 25  1  0
  7 26  1  0
  8 27  1  0
 10 28  1  0
 10 29  1  0
 11 30  1  0
 11 31  1  0
 12 32  1  1
 13 33  1  0
 13 34  1  0
 13 35  1  0
 14 36  1  0
 14 37  1  0
 16 38  1  0
 17 39  1  0
 18 40  1  0
 19 41  1  0
 20 42  1  0
 21 43  1  0
M  CHG  1  12   1
M  END
>  <meeko>  (20) 
{"is_sidechain": [false], "free_energy": -5.932, "intermolecular_energy": -10.597, "internal_energy": -0.268}

$$$$
