seed-5301
     RDKit          3D

 43 44  0  0  0  0  0  0  0  0999 V2000
  134.9740  123.1730  117.9050 C   0  0  0  0  0  0  0  0  0  0  0  0
  135.3990  123.3220  119.2640 O   0  0  0  0  0  0  0  0  0  0  0  0
  135.0910  124.5300  119.8010 C   0  0  0  0  0  0  0  0  0  0  0  0
  134.5840  125.4690  119.2110 O   0  0  0  0  0  0  0  0  0  0  0  0
  135.4840  124.5770  121.2360 C   0  0  0  0  0  0  0  0  0  0  0  0
  135.6630  125.8330  121.8300 C   0  0  0  0  0  0  0  0  0  0  0  0
  136.0180  125.9290  123.1750 C   0  0  0  0  0  0  0  0  0  0  0  0
  136.2140  124.7750  123.9330 C   0  0  0  0  0  0  0  0  0  0  0  0
  136.0650  123.5070  123.3540 C   0  0  0  0  0  0  0  0  0  0  0  0
  136.2820  122.2620  124.1770 C   0  0  0  0  0  0  0  0  0  0  0  0
  135.0070  121.5360  124.6350 C   0  0  0  0  0  0  0  0  0  0  0  0
  134.2660  122.1860  125.7860 N   0  0  2  0  0  0  0  0  0  0  0  0
  134.5160  121.5420  127.1210 C   0  0  0  0  0  0  0  0  0  0  0  0
  132.7960  122.4520  125.5220 C   0  0  0  0  0  0  0  0  0  0  0  0
  132.5790  123.7090  124.7210 C   0  0  0  0  0  0  0  0  0  0  0  0
  132.7180  124.9700  125.3190 C   0  0  0  0  0  0  0  0  0  0  0  0
  132.5460  126.1330  124.5660 C   0  0  0  0  0  0  0  0  0  0  0  0
  132.2350  126.0470  123.2110 C   0  0  0  0  0  0  0  0  0  0  0  0
  132.0890  124.8000  122.6060 C   0  0  0  0  0  0  0  0  0  0  0  0
  132.2590  123.6350  123.3560 C   0  0  0  0  0  0  0  0  0  0  0  0
  135.6790  123.4190  122.0050 C   0  0  0  0  0  0  0  0  0  0  0  0
  133.9362  122.8091  117.8832 H   0  0  0  0  0  0  0  0  0  0  0  0
  135.0325  124.1453  117.3938 H   0  0  0  0  0  0  0  0  0  0  0  0
  135.6268  122.4501  117.3938 H   0  0  0  0  0  0  0  0  0  0  0  0
  135.5230  126.7465  121.2334 H   0  0  0  0  0  0  0  0  0  0  0  0
  136.1439  126.9181  123.6396 H   0  0  0  0  0  0  0  0  0  0  0  0
  136.4880  124.8605  124.9949 H   0  0  0  0  0  0  0  0  0  0  0  0
  136.8743  121.5575  123.5747 H   0  0  0  0  0  0  0  0  0  0  0  0
  136.7851  122.5943  125.0970 H   0  0  0  0  0  0  0  0  0  0  0  0
  134.3207  121.4819  123.7771 H   0  0  0  0  0  0  0  0  0  0  0  0
  135.3342  120.5522  125.0026 H   0  0  0  0  0  0  0  0  0  0  0  0
  134.6790  123.1230  125.8660 H   0  0  0  0  0  0  0  0  0  0  0  0
  134.2437  122.2436  127.9233 H   0  0  0  0  0  0  0  0  0  0  0  0
  133.9064  120.6306  127.2083 H   0  0  0  0  0  0  0  0  0  0  0  0
  135.5809  121.2806  127.2083 H   0  0  0  0  0  0  0  0  0  0  0  0
  132.3765  121.6008  124.9656 H   0  0  0  0  0  0  0  0  0  0  0  0
  132.2969  122.5810  126.4937 H   0  0  0  0  0  0  0  0  0  0  0  0
  132.9642  125.0432  126.3886 H   0  0  0  0  0  0  0  0  0  0  0  0
  132.6562  127.1180  125.0432 H   0  0  0  0  0  0  0  0  0  0  0  0
  132.1045  126.9642  122.6179 H   0  0  0  0  0  0  0  0  0  0  0  0
  131.8396  124.7338  121.5367 H   0  0  0  0  0  0  0  0  0  0  0  0
  132.1415  122.6530  122.8746 H   0  0  0  0  0  0  0  0  0  0  0  0
  135.5280  122.4306  121.5465 H   0  0  0  0  0  0  0  0  0  0  0  0
  1  2  1  0
  2  3  1  0
  3  4  2  0
  3  5  1  0
  5  6  1  0
  6  7  2  0
  7  8  1  0
  8  9  2  0
  9 10  1  0
 10 11  1  0
 11 12  1  0
 12 13  1  0
 12 14  1  0
 14 15  1  0
 15 16  2  0
 16 17  1  0
 17 18  2  0
 18 19  1  0
 19 20  2  0
  9 21  1  0
 21  5  2  0
 20 15  1  0
  1 22  1  0
  1 23  1  0
  1 24  1  0
  6 25  1  0
  7 26  1  0
  8 27  1  0
 10 28  1  0
 10 29  1  0
 11 30  1  0
 11 31  1  0
 12 32  1  1
 13 33  1  0
 13 34  1  0
 13 35  1  0
 14 36  1  0
 14 37  1  0
 16 38  1  0
 17 39  1  0
 18 40  1  0
 19 41  1  0
 20 42  1  0
 21 43  1  0
M  CHG  1  12   1
M  END
>  <meeko>  (1) 
{"is_sidechain": [false], "free_energy": -7.388, "intermolecular_energy": -10.411, "internal_energy": -2.474}

$$$$
seed-5301
     RDKit          3D

 43 44  0  0  0  0  0  0  0  0999 V2000
  131.2470  128.1310  127.9600 C   0  0  0  0  0  0  0  0  0  0  0  0
  131.6050  127.2210  126.9160 O   0  0  0  0  0  0  0  0  0  0  0  0
  130.9100  126.0560  126.9470 C   0  0  0  0  0  0  0  0  0  0  0  0
  130.0730  125.7410  127.7770 O   0  0  0  0  0  0  0  0  0  0  0  0
  131.3240  125.1710  125.8230 C   0  0  0  0  0  0  0  0  0  0  0  0
  131.1880  123.7880  125.9890 C   0  0  0  0  0  0  0  0  0  0  0  0
  131.5500  122.9190  124.9600 C   0  0  0  0  0  0  0  0  0  0  0  0
  132.0640  123.4220  123.7650 C   0  0  0  0  0  0  0  0  0  0  0  0
  132.2320  124.8020  123.5860 C   0  0  0  0  0  0  0  0  0  0  0  0
  132.7920  125.3410  122.2930 C   0  0  0  0  0  0  0  0  0  0  0  0
  134.1630  124.7830  121.8790 C   0  0  0  0  0  0  0  0  0  0  0  0
  135.2800  124.9900  122.8820 N   0  0  2  0  0  0  0  0  0  0  0  0
  136.1550  126.1770  122.5930 C   0  0  0  0  0  0  0  0  0  0  0  0
  136.0690  123.7390  123.2170 C   0  0  0  0  0  0  0  0  0  0  0  0
  135.5700  123.0670  124.4700 C   0  0  0  0  0  0  0  0  0  0  0  0
  135.3180  123.8160  125.6290 C   0  0  0  0  0  0  0  0  0  0  0  0
  134.8250  123.1950  126.7780 C   0  0  0  0  0  0  0  0  0  0  0  0
  134.5820  121.8240  126.7800 C   0  0  0  0  0  0  0  0  0  0  0  0
  134.8330  121.0690  125.6370 C   0  0  0  0  0  0  0  0  0  0  0  0
  135.3260  121.6850  124.4860 C   0  0  0  0  0  0  0  0  0  0  0  0
  131.8380  125.6730  124.6170 C   0  0  0  0  0  0  0  0  0  0  0  0
  131.4323  127.6599  128.9366 H   0  0  0  0  0  0  0  0  0  0  0  0
  131.8525  129.0452  127.8731 H   0  0  0  0  0  0  0  0  0  0  0  0
  130.1809  128.3876  127.8731 H   0  0  0  0  0  0  0  0  0  0  0  0
  130.7944  123.3852  126.9339 H   0  0  0  0  0  0  0  0  0  0  0  0
  131.4298  121.8335  125.0913 H   0  0  0  0  0  0  0  0  0  0  0  0
  132.3399  122.7297  122.9559 H   0  0  0  0  0  0  0  0  0  0  0  0
  132.0759  125.1085  121.4911 H   0  0  0  0  0  0  0  0  0  0  0  0
  132.9426  126.4183  122.4564 H   0  0  0  0  0  0  0  0  0  0  0  0
  134.0527  123.7013  121.7126 H   0  0  0  0  0  0  0  0  0  0  0  0
  134.4576  125.3416  120.9784 H   0  0  0  0  0  0  0  0  0  0  0  0
  134.8010  125.2250  123.7600 H   0  0  0  0  0  0  0  0  0  0  0  0
  136.4868  126.6272  123.5402 H   0  0  0  0  0  0  0  0  0  0  0  0
  137.0323  125.8534  122.0136 H   0  0  0  0  0  0  0  0  0  0  0  0
  135.5864  126.9193  122.0136 H   0  0  0  0  0  0  0  0  0  0  0  0
  135.9841  123.0320  122.3786 H   0  0  0  0  0  0  0  0  0  0  0  0
  137.1143  124.0359  123.3876 H   0  0  0  0  0  0  0  0  0  0  0  0
  135.5100  124.8991  125.6325 H   0  0  0  0  0  0  0  0  0  0  0  0
  134.6284  123.7893  127.6825 H   0  0  0  0  0  0  0  0  0  0  0  0
  134.1913  121.3366  127.6855 H   0  0  0  0  0  0  0  0  0  0  0  0
  134.6424  119.9857  125.6415 H   0  0  0  0  0  0  0  0  0  0  0  0
  135.5245  121.0841  123.5863 H   0  0  0  0  0  0  0  0  0  0  0  0
  131.9336  126.7599  124.4770 H   0  0  0  0  0  0  0  0  0  0  0  0
  1  2  1  0
  2  3  1  0
  3  4  2  0
  3  5  1  0
  5  6  1  0
  6  7  2  0
  7  8  1  0
  8  9  2  0
  9 10  1  0
 10 11  1  0
 11 12  1  0
 12 13  1  0
 12 14  1  0
 14 15  1  0
 15 16  2  0
 16 17  1  0
 17 18  2  0
 18 19  1  0
 19 20  2  0
  9 21  1  0
 21  5  2  0
 20 15  1  0
  1 22  1  0
  1 23  1  0
  1 24  1  0
  6 25  1  0
  7 26  1  0
  8 27  1  0
 10 28  1  0
 10 29  1  0
 11 30  1  0
 11 31  1  0
 12 32  1  1
 13 33  1  0
 13 34  1  0
 13 35  1  0
 14 36  1  0
 14 37  1  0
 16 38  1  0
 17 39  1  0
 18 40  1  0
 19 41  1  0
 20 42  1  0
 21 43  1  0
M  CHG  1  12   1
M  END
>  <meeko>  (2) 
{"is_sidechain": [false], "free_energy": -7.271, "intermolecular_energy": -10.491, "internal_energy": -2.229}

$$$$
seed-5301
     RDKit          3D

 43 44  0  0  0  0  0  0  0  0999 V2000
  135.0290  122.1220  116.0700 C   0  0  0  0  0  0  0  0  0  0  0  0
  135.3740  123.3040  116.7990 O   0  0  0  0  0  0  0  0  0  0  0  0
  134.3770  123.7630  117.5960 C   0  0  0  0  0  0  0  0  0  0  0  0
  133.2230  123.9640  117.2580 O   0  0  0  0  0  0  0  0  0  0  0  0
  134.8870  124.0230  118.9710 C   0  0  0  0  0  0  0  0  0  0  0  0
  135.8110  123.1210  119.5140 C   0  0  0  0  0  0  0  0  0  0  0  0
  136.3270  123.3290  120.7920 C   0  0  0  0  0  0  0  0  0  0  0  0
  135.9150  124.4290  121.5450 C   0  0  0  0  0  0  0  0  0  0  0  0
  134.9730  125.3310  121.0320 C   0  0  0  0  0  0  0  0  0  0  0  0
  134.5270  126.5160  121.8520 C   0  0  0  0  0  0  0  0  0  0  0  0
  134.4050  126.2710  123.3640 C   0  0  0  0  0  0  0  0  0  0  0  0
  133.4010  125.2100  123.7720 N   0  0  2  0  0  0  0  0  0  0  0  0
  132.0010  125.4700  123.2900 C   0  0  0  0  0  0  0  0  0  0  0  0
  133.4610  124.8110  125.2340 C   0  0  0  0  0  0  0  0  0  0  0  0
  134.2380  123.5380  125.4460 C   0  0  0  0  0  0  0  0  0  0  0  0
  134.5850  122.7240  124.3580 C   0  0  0  0  0  0  0  0  0  0  0  0
  135.3320  121.5610  124.5560 C   0  0  0  0  0  0  0  0  0  0  0  0
  135.7370  121.2010  125.8390 C   0  0  0  0  0  0  0  0  0  0  0  0
  135.3930  121.9990  126.9280 C   0  0  0  0  0  0  0  0  0  0  0  0
  134.6470  123.1620  126.7360 C   0  0  0  0  0  0  0  0  0  0  0  0
  134.4780  125.1300  119.7320 C   0  0  0  0  0  0  0  0  0  0  0  0
  134.7926  121.3119  116.7756 H   0  0  0  0  0  0  0  0  0  0  0  0
  134.1525  122.3244  115.4370 H   0  0  0  0  0  0  0  0  0  0  0  0
  135.8768  121.8211  115.4370 H   0  0  0  0  0  0  0  0  0  0  0  0
  136.1305  122.2455  118.9298 H   0  0  0  0  0  0  0  0  0  0  0  0
  137.0614  122.6237  121.2082 H   0  0  0  0  0  0  0  0  0  0  0  0
  136.3330  124.5896  122.5497 H   0  0  0  0  0  0  0  0  0  0  0  0
  135.2546  127.3265  121.6984 H   0  0  0  0  0  0  0  0  0  0  0  0
  133.5116  126.7568  121.5040 H   0  0  0  0  0  0  0  0  0  0  0  0
  135.3929  125.9656  123.7391 H   0  0  0  0  0  0  0  0  0  0  0  0
  134.0408  127.2150  123.7956 H   0  0  0  0  0  0  0  0  0  0  0  0
  133.6980  124.3640  123.2700 H   0  0  0  0  0  0  0  0  0  0  0  0
  131.3326  125.5941  124.1548 H   0  0  0  0  0  0  0  0  0  0  0  0
  131.9870  126.3861  122.6813 H   0  0  0  0  0  0  0  0  0  0  0  0
  131.6590  124.6200  122.6813 H   0  0  0  0  0  0  0  0  0  0  0  0
  133.9442  125.6195  125.8021 H   0  0  0  0  0  0  0  0  0  0  0  0
  132.4308  124.6388  125.5792 H   0  0  0  0  0  0  0  0  0  0  0  0
  134.2669  123.0033  123.3427 H   0  0  0  0  0  0  0  0  0  0  0  0
  135.6010  120.9282  123.6974 H   0  0  0  0  0  0  0  0  0  0  0  0
  136.3286  120.2864  125.9925 H   0  0  0  0  0  0  0  0  0  0  0  0
  135.7103  121.7114  127.9412 H   0  0  0  0  0  0  0  0  0  0  0  0
  134.3776  123.7879  127.5995 H   0  0  0  0  0  0  0  0  0  0  0  0
  133.7620  125.8481  119.3058 H   0  0  0  0  0  0  0  0  0  0  0  0
  1  2  1  0
  2  3  1  0
  3  4  2  0
  3  5  1  0
  5  6  1  0
  6  7  2  0
  7  8  1  0
  8  9  2  0
  9 10  1  0
 10 11  1  0
 11 12  1  0
 12 13  1  0
 12 14  1  0
 14 15  1  0
 15 16  2  0
 16 17  1  0
 17 18  2  0
 18 19  1  0
 19 20  2  0
  9 21  1  0
 21  5  2  0
 20 15  1  0
  1 22  1  0
  1 23  1  0
  1 24  1  0
  6 25  1  0
  7 26  1  0
  8 27  1  0
 10 28  1  0
 10 29  1  0
 11 30  1  0
 11 31  1  0
 12 32  1  6
 13 33  1  0
 13 34  1  0
 13 35  1  0
 14 36  1  0
 14 37  1  0
 16 38  1  0
 17 39  1  0
 18 40  1  0
 19 41  1  0
 20 42  1  0
 21 43  1  0
M  CHG  1  12   1
M  END
>  <meeko>  (3) 
{"is_sidechain": [false], "free_energy": -7.125, "intermolecular_energy": -11.634, "internal_energy": -0.879}

$$$$
seed-5301
     RDKit          3D

 43 44  0  0  0  0  0  0  0  0999 V2000
  133.4400  124.0930  117.1950 C   0  0  0  0  0  0  0  0  0  0  0  0
  134.3260  124.8390  118.0350 O   0  0  0  0  0  0  0  0  0  0  0  0
  134.8930  124.0990  119.0210 C   0  0  0  0  0  0  0  0  0  0  0  0
  135.3590  122.9780  118.9000 O   0  0  0  0  0  0  0  0  0  0  0  0
  134.8520  124.8350  120.3140 C   0  0  0  0  0  0  0  0  0  0  0  0
  136.0560  125.3290  120.8310 C   0  0  0  0  0  0  0  0  0  0  0  0
  136.0670  126.0360  122.0320 C   0  0  0  0  0  0  0  0  0  0  0  0
  134.8800  126.2420  122.7360 C   0  0  0  0  0  0  0  0  0  0  0  0
  133.6660  125.7360  122.2510 C   0  0  0  0  0  0  0  0  0  0  0  0
  132.3860  125.9580  123.0180 C   0  0  0  0  0  0  0  0  0  0  0  0
  132.5500  126.2260  124.5220 C   0  0  0  0  0  0  0  0  0  0  0  0
  131.5410  127.1820  125.1260 N   0  0  2  0  0  0  0  0  0  0  0  0
  131.8860  127.6450  126.5130 C   0  0  0  0  0  0  0  0  0  0  0  0
  130.0950  126.7450  124.9890 C   0  0  0  0  0  0  0  0  0  0  0  0
  129.3180  127.6280  124.0480 C   0  0  0  0  0  0  0  0  0  0  0  0
  129.7090  128.9570  123.8310 C   0  0  0  0  0  0  0  0  0  0  0  0
  129.0050  129.7630  122.9340 C   0  0  0  0  0  0  0  0  0  0  0  0
  127.9070  129.2490  122.2480 C   0  0  0  0  0  0  0  0  0  0  0  0
  127.5060  127.9320  122.4590 C   0  0  0  0  0  0  0  0  0  0  0  0
  128.2070  127.1230  123.3550 C   0  0  0  0  0  0  0  0  0  0  0  0
  133.6600  125.0480  121.0250 C   0  0  0  0  0  0  0  0  0  0  0  0
  132.7472  123.5097  117.8193 H   0  0  0  0  0  0  0  0  0  0  0  0
  132.8673  124.7849  116.5600 H   0  0  0  0  0  0  0  0  0  0  0  0
  134.0243  123.4109  116.5600 H   0  0  0  0  0  0  0  0  0  0  0  0
  136.9968  125.1584  120.2871 H   0  0  0  0  0  0  0  0  0  0  0  0
  137.0142  126.4328  122.4261 H   0  0  0  0  0  0  0  0  0  0  0  0
  134.8970  126.8065  123.6800 H   0  0  0  0  0  0  0  0  0  0  0  0
  131.8716  126.8232  122.5744 H   0  0  0  0  0  0  0  0  0  0  0  0
  131.8221  125.0167  122.9403 H   0  0  0  0  0  0  0  0  0  0  0  0
  132.4643  125.2644  125.0493 H   0  0  0  0  0  0  0  0  0  0  0  0
  133.5318  126.7083  124.6385 H   0  0  0  0  0  0  0  0  0  0  0  0
  131.6020  128.0270  124.5450 H   0  0  0  0  0  0  0  0  0  0  0  0
  131.3981  126.9903  127.2501 H   0  0  0  0  0  0  0  0  0  0  0  0
  132.9764  127.6052  126.6522 H   0  0  0  0  0  0  0  0  0  0  0  0
  131.5361  128.6785  126.6522 H   0  0  0  0  0  0  0  0  0  0  0  0
  130.0717  125.7138  124.6069 H   0  0  0  0  0  0  0  0  0  0  0  0
  129.6263  126.8161  125.9816 H   0  0  0  0  0  0  0  0  0  0  0  0
  130.5754  129.3671  124.3706 H   0  0  0  0  0  0  0  0  0  0  0  0
  129.3177  130.8046  122.7690 H   0  0  0  0  0  0  0  0  0  0  0  0
  127.3559  129.8841  121.5387 H   0  0  0  0  0  0  0  0  0  0  0  0
  126.6363  127.5291  121.9193 H   0  0  0  0  0  0  0  0  0  0  0  0
  127.8867  126.0835  123.5188 H   0  0  0  0  0  0  0  0  0  0  0  0
  132.7099  124.6719  120.6177 H   0  0  0  0  0  0  0  0  0  0  0  0
  1  2  1  0
  2  3  1  0
  3  4  2  0
  3  5  1  0
  5  6  1  0
  6  7  2  0
  7  8  1  0
  8  9  2  0
  9 10  1  0
 10 11  1  0
 11 12  1  0
 12 13  1  0
 12 14  1  0
 14 15  1  0
 15 16  2  0
 16 17  1  0
 17 18  2  0
 18 19  1  0
 19 20  2  0
  9 21  1  0
 21  5  2  0
 20 15  1  0
  1 22  1  0
  1 23  1  0
  1 24  1  0
  6 25  1  0
  7 26  1  0
  8 27  1  0
 10 28  1  0
 10 29  1  0
 11 30  1  0
 11 31  1  0
 12 32  1  6
 13 33  1  0
 13 34  1  0
 13 35  1  0
 14 36  1  0
 14 37  1  0
 16 38  1  0
 17 39  1  0
 18 40  1  0
 19 41  1  0
 20 42  1  0
 21 43  1  0
M  CHG  1  12   1
M  END
>  <meeko>  (4) 
{"is_sidechain": [false], "free_energy": -6.984, "intermolecular_energy": -11.717, "internal_energy": -0.598}

$$$$
seed-5301
     RDKit          3D

 43 44  0  0  0  0  0  0  0  0999 V2000
  133.6520  124.0760  117.3750 C   0  0  0  0  0  0  0  0  0  0  0  0
  134.2600  124.9650  118.3160 O   0  0  0  0  0  0  0  0  0  0  0  0
  134.9560  124.3310  119.2920 C   0  0  0  0  0  0  0  0  0  0  0  0
  135.6510  123.3390  119.1500 O   0  0  0  0  0  0  0  0  0  0  0  0
  134.7410  125.0000  120.6050 C   0  0  0  0  0  0  0  0  0  0  0  0
  135.8610  125.4930  121.2860 C   0  0  0  0  0  0  0  0  0  0  0  0
  135.7090  126.1390  122.5120 C   0  0  0  0  0  0  0  0  0  0  0  0
  134.4420  126.2830  123.0770 C   0  0  0  0  0  0  0  0  0  0  0  0
  133.3090  125.7760  122.4250 C   0  0  0  0  0  0  0  0  0  0  0  0
  131.9410  125.9310  123.0420 C   0  0  0  0  0  0  0  0  0  0  0  0
  131.8680  125.7160  124.5620 C   0  0  0  0  0  0  0  0  0  0  0  0
  132.3410  124.3610  125.0510 N   0  0  2  0  0  0  0  0  0  0  0  0
  131.2330  123.3870  125.3320 C   0  0  0  0  0  0  0  0  0  0  0  0
  133.3790  124.4140  126.1560 C   0  0  0  0  0  0  0  0  0  0  0  0
  134.4450  123.3630  125.9880 C   0  0  0  0  0  0  0  0  0  0  0  0
  134.9730  123.0780  124.7210 C   0  0  0  0  0  0  0  0  0  0  0  0
  135.9830  122.1260  124.5740 C   0  0  0  0  0  0  0  0  0  0  0  0
  136.4730  121.4510  125.6890 C   0  0  0  0  0  0  0  0  0  0  0  0
  135.9530  121.7210  126.9530 C   0  0  0  0  0  0  0  0  0  0  0  0
  134.9430  122.6720  127.1040 C   0  0  0  0  0  0  0  0  0  0  0  0
  133.4670  125.1510  121.1760 C   0  0  0  0  0  0  0  0  0  0  0  0
  133.1109  123.2849  117.9147 H   0  0  0  0  0  0  0  0  0  0  0  0
  132.9474  124.6367  116.7433 H   0  0  0  0  0  0  0  0  0  0  0  0
  134.4301  123.6227  116.7433 H   0  0  0  0  0  0  0  0  0  0  0  0
  136.8642  125.3701  120.8520 H   0  0  0  0  0  0  0  0  0  0  0  0
  136.5911  126.5364  123.0354 H   0  0  0  0  0  0  0  0  0  0  0  0
  134.3307  126.7987  124.0422 H   0  0  0  0  0  0  0  0  0  0  0  0
  131.5867  126.9500  122.8273 H   0  0  0  0  0  0  0  0  0  0  0  0
  131.3196  125.1400  122.5968 H   0  0  0  0  0  0  0  0  0  0  0  0
  132.4884  126.4861  125.0438 H   0  0  0  0  0  0  0  0  0  0  0  0
  130.8019  125.7780  124.8258 H   0  0  0  0  0  0  0  0  0  0  0  0
  132.8480  123.9580  124.2530 H   0  0  0  0  0  0  0  0  0  0  0  0
  131.1082  123.2773  126.4194 H   0  0  0  0  0  0  0  0  0  0  0  0
  130.2966  123.7597  124.8912 H   0  0  0  0  0  0  0  0  0  0  0  0
  131.4826  122.4106  124.8912 H   0  0  0  0  0  0  0  0  0  0  0  0
  133.8550  125.4056  126.1472 H   0  0  0  0  0  0  0  0  0  0  0  0
  132.8657  124.2240  127.1101 H   0  0  0  0  0  0  0  0  0  0  0  0
  134.5888  123.6081  123.8370 H   0  0  0  0  0  0  0  0  0  0  0  0
  136.3923  121.9087  123.5764 H   0  0  0  0  0  0  0  0  0  0  0  0
  137.2716  120.7037  125.5717 H   0  0  0  0  0  0  0  0  0  0  0  0
  136.3387  121.1843  127.8323 H   0  0  0  0  0  0  0  0  0  0  0  0
  134.5345  122.8815  128.1036 H   0  0  0  0  0  0  0  0  0  0  0  0
  132.5828  124.7760  120.6398 H   0  0  0  0  0  0  0  0  0  0  0  0
  1  2  1  0
  2  3  1  0
  3  4  2  0
  3  5  1  0
  5  6  1  0
  6  7  2  0
  7  8  1  0
  8  9  2  0
  9 10  1  0
 10 11  1  0
 11 12  1  0
 12 13  1  0
 12 14  1  0
 14 15  1  0
 15 16  2  0
 16 17  1  0
 17 18  2  0
 18 19  1  0
 19 20  2  0
  9 21  1  0
 21  5  2  0
 20 15  1  0
  1 22  1  0
  1 23  1  0
  1 24  1  0
  6 25  1  0
  7 26  1  0
  8 27  1  0
 10 28  1  0
 10 29  1  0
 11 30  1  0
 11 31  1  0
 12 32  1  6
 13 33  1  0
 13 34  1  0
 13 35  1  0
 14 36  1  0
 14 37  1  0
 16 38  1  0
 17 39  1  0
 18 40  1  0
 19 41  1  0
 20 42  1  0
 21 43  1  0
M  CHG  1  12   1
M  END
>  <meeko>  (5) 
{"is_sidechain": [false], "free_energy": -6.891, "intermolecular_energy": -10.987, "internal_energy": -1.198}

$$$$
seed-5301
     RDKit          3D

 43 44  0  0  0  0  0  0  0  0999 V2000
  135.0100  122.2710  115.9340 C   0  0  0  0  0  0  0  0  0  0  0  0
  134.1440  122.4220  117.0620 O   0  0  0  0  0  0  0  0  0  0  0  0
  133.9700  123.7110  117.4460 C   0  0  0  0  0  0  0  0  0  0  0  0
  133.3760  124.5730  116.8200 O   0  0  0  0  0  0  0  0  0  0  0  0
  134.6370  123.9600  118.7540 C   0  0  0  0  0  0  0  0  0  0  0  0
  135.5840  123.0300  119.1990 C   0  0  0  0  0  0  0  0  0  0  0  0
  136.2450  123.2260  120.4120 C   0  0  0  0  0  0  0  0  0  0  0  0
  135.9550  124.3420  121.1960 C   0  0  0  0  0  0  0  0  0  0  0  0
  134.9920  125.2740  120.7830 C   0  0  0  0  0  0  0  0  0  0  0  0
  134.6790  126.4760  121.6370 C   0  0  0  0  0  0  0  0  0  0  0  0
  135.7460  126.8480  122.6790 C   0  0  0  0  0  0  0  0  0  0  0  0
  135.3970  126.5150  124.1160 N   0  0  2  0  0  0  0  0  0  0  0  0
  136.0490  127.4100  125.1320 C   0  0  0  0  0  0  0  0  0  0  0  0
  135.5030  125.0430  124.4670 C   0  0  0  0  0  0  0  0  0  0  0  0
  134.1630  124.4350  124.7900 C   0  0  0  0  0  0  0  0  0  0  0  0
  133.2720  124.0870  123.7640 C   0  0  0  0  0  0  0  0  0  0  0  0
  132.0440  123.4950  124.0660 C   0  0  0  0  0  0  0  0  0  0  0  0
  131.6960  123.2470  125.3910 C   0  0  0  0  0  0  0  0  0  0  0  0
  132.5710  123.5930  126.4190 C   0  0  0  0  0  0  0  0  0  0  0  0
  133.7990  124.1850  126.1220 C   0  0  0  0  0  0  0  0  0  0  0  0
  134.3510  125.0830  119.5470 C   0  0  0  0  0  0  0  0  0  0  0  0
  136.0379  122.0918  116.2823 H   0  0  0  0  0  0  0  0  0  0  0  0
  134.6748  121.4177  115.3260 H   0  0  0  0  0  0  0  0  0  0  0  0
  134.9834  123.1873  115.3260 H   0  0  0  0  0  0  0  0  0  0  0  0
  135.8078  122.1416  118.5902 H   0  0  0  0  0  0  0  0  0  0  0  0
  136.9969  122.4981  120.7508 H   0  0  0  0  0  0  0  0  0  0  0  0
  136.4865  124.4927  122.1472 H   0  0  0  0  0  0  0  0  0  0  0  0
  134.5432  127.3393  120.9690 H   0  0  0  0  0  0  0  0  0  0  0  0
  133.7787  126.2106  122.2106 H   0  0  0  0  0  0  0  0  0  0  0  0
  136.6720  126.3127  122.4221 H   0  0  0  0  0  0  0  0  0  0  0  0
  135.8414  127.9430  122.6368 H   0  0  0  0  0  0  0  0  0  0  0  0
  134.3930  126.7170  124.1940 H   0  0  0  0  0  0  0  0  0  0  0  0
  135.7952  127.0617  126.1441 H   0  0  0  0  0  0  0  0  0  0  0  0
  137.1404  127.3829  124.9978 H   0  0  0  0  0  0  0  0  0  0  0  0
  135.6886  128.4406  124.9978 H   0  0  0  0  0  0  0  0  0  0  0  0
  135.9384  124.5057  123.6116 H   0  0  0  0  0  0  0  0  0  0  0  0
  136.1373  124.9548  125.3614 H   0  0  0  0  0  0  0  0  0  0  0  0
  133.5422  124.2816  122.7156 H   0  0  0  0  0  0  0  0  0  0  0  0
  131.3507  123.2243  123.2560 H   0  0  0  0  0  0  0  0  0  0  0  0
  130.7295  122.7775  125.6267 H   0  0  0  0  0  0  0  0  0  0  0  0
  132.2932  123.3992  127.4656 H   0  0  0  0  0  0  0  0  0  0  0  0
  134.4859  124.4574  126.9368 H   0  0  0  0  0  0  0  0  0  0  0  0
  133.6160  125.8225  119.1964 H   0  0  0  0  0  0  0  0  0  0  0  0
  1  2  1  0
  2  3  1  0
  3  4  2  0
  3  5  1  0
  5  6  1  0
  6  7  2  0
  7  8  1  0
  8  9  2  0
  9 10  1  0
 10 11  1  0
 11 12  1  0
 12 13  1  0
 12 14  1  0
 14 15  1  0
 15 16  2  0
 16 17  1  0
 17 18  2  0
 18 19  1  0
 19 20  2  0
  9 21  1  0
 21  5  2  0
 20 15  1  0
  1 22  1  0
  1 23  1  0
  1 24  1  0
  6 25  1  0
  7 26  1  0
  8 27  1  0
 10 28  1  0
 10 29  1  0
 11 30  1  0
 11 31  1  0
 12 32  1  6
 13 33  1  0
 13 34  1  0
 13 35  1  0
 14 36  1  0
 14 37  1  0
 16 38  1  0
 17 39  1  0
 18 40  1  0
 19 41  1  0
 20 42  1  0
 21 43  1  0
M  CHG  1  12   1
M  END
>  <meeko>  (6) 
{"is_sidechain": [false], "free_energy": -6.802, "intermolecular_energy": -11.363, "internal_energy": -0.696}

$$$$
seed-5301
     RDKit          3D

 43 44  0  0  0  0  0  0  0  0999 V2000
  130.9620  127.9550  127.8600 C   0  0  0  0  0  0  0  0  0  0  0  0
  131.6030  127.0240  126.9840 O   0  0  0  0  0  0  0  0  0  0  0  0
  131.3250  127.2310  125.6720 C   0  0  0  0  0  0  0  0  0  0  0  0
  130.8000  128.2250  125.1970 O   0  0  0  0  0  0  0  0  0  0  0  0
  131.7270  126.0490  124.8610 C   0  0  0  0  0  0  0  0  0  0  0  0
  131.6420  126.1450  123.4670 C   0  0  0  0  0  0  0  0  0  0  0  0
  132.0200  125.0700  122.6640 C   0  0  0  0  0  0  0  0  0  0  0  0
  132.4710  123.8850  123.2450 C   0  0  0  0  0  0  0  0  0  0  0  0
  132.5420  123.7570  124.6400 C   0  0  0  0  0  0  0  0  0  0  0  0
  133.0260  122.4710  125.2630 C   0  0  0  0  0  0  0  0  0  0  0  0
  134.1990  122.6090  126.2460 C   0  0  0  0  0  0  0  0  0  0  0  0
  135.5750  122.3730  125.6540 N   0  0  2  0  0  0  0  0  0  0  0  0
  136.4290  121.4210  126.4430 C   0  0  0  0  0  0  0  0  0  0  0  0
  136.3130  123.6340  125.2460 C   0  0  0  0  0  0  0  0  0  0  0  0
  136.0920  123.9800  123.7970 C   0  0  0  0  0  0  0  0  0  0  0  0
  136.0200  122.9720  122.8250 C   0  0  0  0  0  0  0  0  0  0  0  0
  135.7850  123.2950  121.4870 C   0  0  0  0  0  0  0  0  0  0  0  0
  135.6200  124.6250  121.1090 C   0  0  0  0  0  0  0  0  0  0  0  0
  135.6950  125.6360  122.0650 C   0  0  0  0  0  0  0  0  0  0  0  0
  135.9300  125.3180  123.4030 C   0  0  0  0  0  0  0  0  0  0  0  0
  132.1850  124.8550  125.4410 C   0  0  0  0  0  0  0  0  0  0  0  0
  131.1579  127.6704  128.9043 H   0  0  0  0  0  0  0  0  0  0  0  0
  131.3573  128.9647  127.6747 H   0  0  0  0  0  0  0  0  0  0  0  0
  129.8778  127.9460  127.6747 H   0  0  0  0  0  0  0  0  0  0  0  0
  131.2754  127.0726  123.0033 H   0  0  0  0  0  0  0  0  0  0  0  0
  131.9624  125.1566  121.5689 H   0  0  0  0  0  0  0  0  0  0  0  0
  132.7735  123.0438  122.6040 H   0  0  0  0  0  0  0  0  0  0  0  0
  132.1821  122.0189  125.8047 H   0  0  0  0  0  0  0  0  0  0  0  0
  133.4014  121.8567  124.4313 H   0  0  0  0  0  0  0  0  0  0  0  0
  134.1775  123.6283  126.6590 H   0  0  0  0  0  0  0  0  0  0  0  0
  134.0553  121.8227  127.0017 H   0  0  0  0  0  0  0  0  0  0  0  0
  135.3970  121.8900  124.7650 H   0  0  0  0  0  0  0  0  0  0  0  0
  136.2738  121.5940  127.5182 H   0  0  0  0  0  0  0  0  0  0  0  0
  136.1506  120.3863  126.1942 H   0  0  0  0  0  0  0  0  0  0  0  0
  137.4877  121.5858  126.1942 H   0  0  0  0  0  0  0  0  0  0  0  0
  135.9576  124.4691  125.8676 H   0  0  0  0  0  0  0  0  0  0  0  0
  137.3890  123.4566  125.3901 H   0  0  0  0  0  0  0  0  0  0  0  0
  136.1495  121.9198  123.1184 H   0  0  0  0  0  0  0  0  0  0  0  0
  135.7302  122.4980  120.7308 H   0  0  0  0  0  0  0  0  0  0  0  0
  135.4304  124.8776  120.0553 H   0  0  0  0  0  0  0  0  0  0  0  0
  135.5687  126.6865  121.7643 H   0  0  0  0  0  0  0  0  0  0  0  0
  135.9887  126.1200  124.1535 H   0  0  0  0  0  0  0  0  0  0  0  0
  132.2653  124.7783  126.5354 H   0  0  0  0  0  0  0  0  0  0  0  0
  1  2  1  0
  2  3  1  0
  3  4  2  0
  3  5  1  0
  5  6  1  0
  6  7  2  0
  7  8  1  0
  8  9  2  0
  9 10  1  0
 10 11  1  0
 11 12  1  0
 12 13  1  0
 12 14  1  0
 14 15  1  0
 15 16  2  0
 16 17  1  0
 17 18  2  0
 18 19  1  0
 19 20  2  0
  9 21  1  0
 21  5  2  0
 20 15  1  0
  1 22  1  0
  1 23  1  0
  1 24  1  0
  6 25  1  0
  7 26  1  0
  8 27  1  0
 10 28  1  0
 10 29  1  0
 11 30  1  0
 11 31  1  0
 12 32  1  6
 13 33  1  0
 13 34  1  0
 13 35  1  0
 14 36  1  0
 14 37  1  0
 16 38  1  0
 17 39  1  0
 18 40  1  0
 19 41  1  0
 20 42  1  0
 21 43  1  0
M  CHG  1  12   1
M  END
>  <meeko>  (7) 
{"is_sidechain": [false], "free_energy": -6.735, "intermolecular_energy": -9.918, "internal_energy": -2.047}

$$$$
seed-5301
     RDKit          3D

 43 44  0  0  0  0  0  0  0  0999 V2000
  136.4610  127.6110  125.2310 C   0  0  0  0  0  0  0  0  0  0  0  0
  137.0120  126.5990  124.3830 O   0  0  0  0  0  0  0  0  0  0  0  0
  136.3490  126.4520  123.2080 C   0  0  0  0  0  0  0  0  0  0  0  0
  136.0650  127.3460  122.4280 O   0  0  0  0  0  0  0  0  0  0  0  0
  135.9750  125.0270  122.9950 C   0  0  0  0  0  0  0  0  0  0  0  0
  135.6640  124.6140  121.6930 C   0  0  0  0  0  0  0  0  0  0  0  0
  135.3210  123.2870  121.4410 C   0  0  0  0  0  0  0  0  0  0  0  0
  135.2700  122.3640  122.4860 C   0  0  0  0  0  0  0  0  0  0  0  0
  135.5530  122.7600  123.8010 C   0  0  0  0  0  0  0  0  0  0  0  0
  135.4920  121.7590  124.9280 C   0  0  0  0  0  0  0  0  0  0  0  0
  134.8320  122.2560  126.2240 C   0  0  0  0  0  0  0  0  0  0  0  0
  133.4540  121.6940  126.5080 N   0  0  2  0  0  0  0  0  0  0  0  0
  133.0830  120.5130  125.6570 C   0  0  0  0  0  0  0  0  0  0  0  0
  132.3520  122.7330  126.5940 C   0  0  0  0  0  0  0  0  0  0  0  0
  132.4010  123.7130  125.4510 C   0  0  0  0  0  0  0  0  0  0  0  0
  132.0290  123.3200  124.1570 C   0  0  0  0  0  0  0  0  0  0  0  0
  132.0470  124.2390  123.1070 C   0  0  0  0  0  0  0  0  0  0  0  0
  132.4360  125.5560  123.3390 C   0  0  0  0  0  0  0  0  0  0  0  0
  132.8130  125.9570  124.6180 C   0  0  0  0  0  0  0  0  0  0  0  0
  132.7970  125.0410  125.6710 C   0  0  0  0  0  0  0  0  0  0  0  0
  135.9250  124.0930  124.0430 C   0  0  0  0  0  0  0  0  0  0  0  0
  136.6137  127.3305  126.2836 H   0  0  0  0  0  0  0  0  0  0  0  0
  136.9616  128.5698  125.0307 H   0  0  0  0  0  0  0  0  0  0  0  0
  135.3840  127.7108  125.0307 H   0  0  0  0  0  0  0  0  0  0  0  0
  135.6906  125.3396  120.8667 H   0  0  0  0  0  0  0  0  0  0  0  0
  135.0896  122.9662  120.4146 H   0  0  0  0  0  0  0  0  0  0  0  0
  135.0056  121.3170  122.2766 H   0  0  0  0  0  0  0  0  0  0  0  0
  134.9259  120.8849  124.5738 H   0  0  0  0  0  0  0  0  0  0  0  0
  136.5371  121.5366  125.1892 H   0  0  0  0  0  0  0  0  0  0  0  0
  135.4885  121.9861  127.0644 H   0  0  0  0  0  0  0  0  0  0  0  0
  134.6973  123.3406  126.0991 H   0  0  0  0  0  0  0  0  0  0  0  0
  133.5170  121.3190  127.4630 H   0  0  0  0  0  0  0  0  0  0  0  0
  132.8164  119.6642  126.3039 H   0  0  0  0  0  0  0  0  0  0  0  0
  132.2236  120.7742  125.0220 H   0  0  0  0  0  0  0  0  0  0  0  0
  133.9373  120.2358  125.0220 H   0  0  0  0  0  0  0  0  0  0  0  0
  131.3794  122.2194  126.5784 H   0  0  0  0  0  0  0  0  0  0  0  0
  132.4930  123.2971  127.5277 H   0  0  0  0  0  0  0  0  0  0  0  0
  131.7212  122.2809  123.9687 H   0  0  0  0  0  0  0  0  0  0  0  0
  131.7536  123.9229  122.0951 H   0  0  0  0  0  0  0  0  0  0  0  0
  132.4454  126.2801  122.5110 H   0  0  0  0  0  0  0  0  0  0  0  0
  133.1237  126.9966  124.7987 H   0  0  0  0  0  0  0  0  0  0  0  0
  133.0967  125.3621  126.6795 H   0  0  0  0  0  0  0  0  0  0  0  0
  136.1801  124.4090  125.0653 H   0  0  0  0  0  0  0  0  0  0  0  0
  1  2  1  0
  2  3  1  0
  3  4  2  0
  3  5  1  0
  5  6  1  0
  6  7  2  0
  7  8  1  0
  8  9  2  0
  9 10  1  0
 10 11  1  0
 11 12  1  0
 12 13  1  0
 12 14  1  0
 14 15  1  0
 15 16  2  0
 16 17  1  0
 17 18  2  0
 18 19  1  0
 19 20  2  0
  9 21  1  0
 21  5  2  0
 20 15  1  0
  1 22  1  0
  1 23  1  0
  1 24  1  0
  6 25  1  0
  7 26  1  0
  8 27  1  0
 10 28  1  0
 10 29  1  0
 11 30  1  0
 11 31  1  0
 12 32  1  1
 13 33  1  0
 13 34  1  0
 13 35  1  0
 14 36  1  0
 14 37  1  0
 16 38  1  0
 17 39  1  0
 18 40  1  0
 19 41  1  0
 20 42  1  0
 21 43  1  0
M  CHG  1  12   1
M  END
>  <meeko>  (8) 
{"is_sidechain": [false], "free_energy": -6.733, "intermolecular_energy": -9.679, "internal_energy": -2.284}

$$$$
seed-5301
     RDKit          3D

 43 44  0  0  0  0  0  0  0  0999 V2000
  133.6300  123.8960  117.1150 C   0  0  0  0  0  0  0  0  0  0  0  0
  134.2730  124.6940  118.1140 O   0  0  0  0  0  0  0  0  0  0  0  0
  134.8990  123.9650  119.0720 C   0  0  0  0  0  0  0  0  0  0  0  0
  135.3750  122.8510  118.9310 O   0  0  0  0  0  0  0  0  0  0  0  0
  134.9100  124.7040  120.3650 C   0  0  0  0  0  0  0  0  0  0  0  0
  134.2100  125.9150  120.4380 C   0  0  0  0  0  0  0  0  0  0  0  0
  134.1800  126.6380  121.6300 C   0  0  0  0  0  0  0  0  0  0  0  0
  134.8600  126.1660  122.7530 C   0  0  0  0  0  0  0  0  0  0  0  0
  135.5870  124.9690  122.6960 C   0  0  0  0  0  0  0  0  0  0  0  0
  136.3240  124.4660  123.9130 C   0  0  0  0  0  0  0  0  0  0  0  0
  136.0830  122.9920  124.2750 C   0  0  0  0  0  0  0  0  0  0  0  0
  135.1880  122.7550  125.4750 N   0  0  2  0  0  0  0  0  0  0  0  0
  135.7840  121.8520  126.5180 C   0  0  0  0  0  0  0  0  0  0  0  0
  133.7530  122.4030  125.1350 C   0  0  0  0  0  0  0  0  0  0  0  0
  132.7680  123.3640  125.7470 C   0  0  0  0  0  0  0  0  0  0  0  0
  132.9720  124.7490  125.6570 C   0  0  0  0  0  0  0  0  0  0  0  0
  132.0420  125.6370  126.1980 C   0  0  0  0  0  0  0  0  0  0  0  0
  130.9020  125.1520  126.8340 C   0  0  0  0  0  0  0  0  0  0  0  0
  130.6900  123.7790  126.9350 C   0  0  0  0  0  0  0  0  0  0  0  0
  131.6180  122.8870  126.3950 C   0  0  0  0  0  0  0  0  0  0  0  0
  135.5890  124.2330  121.4990 C   0  0  0  0  0  0  0  0  0  0  0  0
  133.0111  123.1279  117.6017 H   0  0  0  0  0  0  0  0  0  0  0  0
  132.9930  124.5369  116.4877 H   0  0  0  0  0  0  0  0  0  0  0  0
  134.3917  123.4099  116.4877 H   0  0  0  0  0  0  0  0  0  0  0  0
  133.6820  126.2971  119.5519 H   0  0  0  0  0  0  0  0  0  0  0  0
  133.6189  127.5826  121.6850 H   0  0  0  0  0  0  0  0  0  0  0  0
  134.8253  126.7384  123.6917 H   0  0  0  0  0  0  0  0  0  0  0  0
  137.4013  124.5986  123.7347 H   0  0  0  0  0  0  0  0  0  0  0  0
  135.9375  125.0505  124.7609 H   0  0  0  0  0  0  0  0  0  0  0  0
  135.6223  122.5000  123.4057 H   0  0  0  0  0  0  0  0  0  0  0  0
  137.0671  122.5816  124.5453 H   0  0  0  0  0  0  0  0  0  0  0  0
  135.1170  123.6720  125.9330 H   0  0  0  0  0  0  0  0  0  0  0  0
  135.5329  122.2324  127.5191 H   0  0  0  0  0  0  0  0  0  0  0  0
  135.3781  120.8366  126.3992 H   0  0  0  0  0  0  0  0  0  0  0  0
  136.8772  121.8261  126.3992 H   0  0  0  0  0  0  0  0  0  0  0  0
  133.6336  122.4226  124.0417 H   0  0  0  0  0  0  0  0  0  0  0  0
  133.5460  121.4031  125.5441 H   0  0  0  0  0  0  0  0  0  0  0  0
  133.8713  125.1374  125.1565 H   0  0  0  0  0  0  0  0  0  0  0  0
  132.2094  126.7215  126.1221 H   0  0  0  0  0  0  0  0  0  0  0  0
  130.1682  125.8539  127.2570 H   0  0  0  0  0  0  0  0  0  0  0  0
  129.7907  123.3974  127.4406 H   0  0  0  0  0  0  0  0  0  0  0  0
  131.4469  121.8035  126.4778 H   0  0  0  0  0  0  0  0  0  0  0  0
  136.1294  123.2761  121.4504 H   0  0  0  0  0  0  0  0  0  0  0  0
  1  2  1  0
  2  3  1  0
  3  4  2  0
  3  5  1  0
  5  6  1  0
  6  7  2  0
  7  8  1  0
  8  9  2  0
  9 10  1  0
 10 11  1  0
 11 12  1  0
 12 13  1  0
 12 14  1  0
 14 15  1  0
 15 16  2  0
 16 17  1  0
 17 18  2  0
 18 19  1  0
 19 20  2  0
  9 21  1  0
 21  5  2  0
 20 15  1  0
  1 22  1  0
  1 23  1  0
  1 24  1  0
  6 25  1  0
  7 26  1  0
  8 27  1  0
 10 28  1  0
 10 29  1  0
 11 30  1  0
 11 31  1  0
 12 32  1  1
 13 33  1  0
 13 34  1  0
 13 35  1  0
 14 36  1  0
 14 37  1  0
 16 38  1  0
 17 39  1  0
 18 40  1  0
 19 41  1  0
 20 42  1  0
 21 43  1  0
M  CHG  1  12   1
M  END
>  <meeko>  (9) 
{"is_sidechain": [false], "free_energy": -6.678, "intermolecular_energy": -10.888, "internal_energy": -0.996}

$$$$
seed-5301
     RDKit          3D

 43 44  0  0  0  0  0  0  0  0999 V2000
  131.4800  128.5660  128.6680 C   0  0  0  0  0  0  0  0  0  0  0  0
  131.9450  128.1950  127.3660 O   0  0  0  0  0  0  0  0  0  0  0  0
  130.9910  127.6190  126.5920 C   0  0  0  0  0  0  0  0  0  0  0  0
  130.1460  128.2060  125.9370 O   0  0  0  0  0  0  0  0  0  0  0  0
  131.0890  126.1350  126.6630 C   0  0  0  0  0  0  0  0  0  0  0  0
  129.9650  125.4190  127.0920 C   0  0  0  0  0  0  0  0  0  0  0  0
  130.0030  124.0270  127.1620 C   0  0  0  0  0  0  0  0  0  0  0  0
  131.1670  123.3390  126.8200 C   0  0  0  0  0  0  0  0  0  0  0  0
  132.3130  124.0360  126.4100 C   0  0  0  0  0  0  0  0  0  0  0  0
  133.5700  123.2870  126.0450 C   0  0  0  0  0  0  0  0  0  0  0  0
  134.4840  123.9800  125.0230 C   0  0  0  0  0  0  0  0  0  0  0  0
  135.0000  123.0950  123.9060 N   0  0  2  0  0  0  0  0  0  0  0  0
  135.3940  121.7140  124.3480 C   0  0  0  0  0  0  0  0  0  0  0  0
  136.0310  123.7470  123.0060 C   0  0  0  0  0  0  0  0  0  0  0  0
  135.4770  124.0710  121.6430 C   0  0  0  0  0  0  0  0  0  0  0  0
  134.6340  125.1770  121.4600 C   0  0  0  0  0  0  0  0  0  0  0  0
  134.1480  125.4920  120.1900 C   0  0  0  0  0  0  0  0  0  0  0  0
  134.4980  124.7070  119.0940 C   0  0  0  0  0  0  0  0  0  0  0  0
  135.3300  123.6030  119.2640 C   0  0  0  0  0  0  0  0  0  0  0  0
  135.8190  123.2840  120.5320 C   0  0  0  0  0  0  0  0  0  0  0  0
  132.2570  125.4370  126.3160 C   0  0  0  0  0  0  0  0  0  0  0  0
  132.0983  128.0727  129.4325 H   0  0  0  0  0  0  0  0  0  0  0  0
  131.5523  129.6573  128.7860 H   0  0  0  0  0  0  0  0  0  0  0  0
  130.4321  128.2531  128.7860 H   0  0  0  0  0  0  0  0  0  0  0  0
  129.0481  125.9568  127.3750 H   0  0  0  0  0  0  0  0  0  0  0  0
  129.1123  123.4698  127.4879 H   0  0  0  0  0  0  0  0  0  0  0  0
  131.1864  122.2404  126.8723 H   0  0  0  0  0  0  0  0  0  0  0  0
  134.1502  123.1308  126.9664 H   0  0  0  0  0  0  0  0  0  0  0  0
  133.2358  122.3550  125.5657 H   0  0  0  0  0  0  0  0  0  0  0  0
  133.9184  124.8061  124.5674 H   0  0  0  0  0  0  0  0  0  0  0  0
  135.3716  124.3079  125.5840 H   0  0  0  0  0  0  0  0  0  0  0  0
  134.1890  122.9510  123.2910 H   0  0  0  0  0  0  0  0  0  0  0  0
  135.4064  121.6704  125.4471 H   0  0  0  0  0  0  0  0  0  0  0  0
  134.6683  120.9839  123.9603 H   0  0  0  0  0  0  0  0  0  0  0  0
  136.3957  121.4767  123.9603 H   0  0  0  0  0  0  0  0  0  0  0  0
  136.3746  124.6789  123.4788 H   0  0  0  0  0  0  0  0  0  0  0  0
  136.8590  123.0353  122.8722 H   0  0  0  0  0  0  0  0  0  0  0  0
  134.3542  125.7998  122.3224 H   0  0  0  0  0  0  0  0  0  0  0  0
  133.4877  126.3613  120.0546 H   0  0  0  0  0  0  0  0  0  0  0  0
  134.1170  124.9591  118.0934 H   0  0  0  0  0  0  0  0  0  0  0  0
  135.6021  122.9817  118.3980 H   0  0  0  0  0  0  0  0  0  0  0  0
  136.4759  122.4112  120.6613 H   0  0  0  0  0  0  0  0  0  0  0  0
  133.1389  125.9937  125.9663 H   0  0  0  0  0  0  0  0  0  0  0  0
  1  2  1  0
  2  3  1  0
  3  4  2  0
  3  5  1  0
  5  6  1  0
  6  7  2  0
  7  8  1  0
  8  9  2  0
  9 10  1  0
 10 11  1  0
 11 12  1  0
 12 13  1  0
 12 14  1  0
 14 15  1  0
 15 16  2  0
 16 17  1  0
 17 18  2  0
 18 19  1  0
 19 20  2  0
  9 21  1  0
 21  5  2  0
 20 15  1  0
  1 22  1  0
  1 23  1  0
  1 24  1  0
  6 25  1  0
  7 26  1  0
  8 27  1  0
 10 28  1  0
 10 29  1  0
 11 30  1  0
 11 31  1  0
 12 32  1  6
 13 33  1  0
 13 34  1  0
 13 35  1  0
 14 36  1  0
 14 37  1  0
 16 38  1  0
 17 39  1  0
 18 40  1  0
 19 41  1  0
 20 42  1  0
 21 43  1  0
M  CHG  1  12   1
M  END
>  <meeko>  (10) 
{"is_sidechain": [false], "free_energy": -6.585, "intermolecular_energy": -11.208, "internal_energy": -0.545}

$$$$
seed-5301
     RDKit          3D

 43 44  0  0  0  0  0  0  0  0999 V2000
  127.9960  129.4840  122.0730 C   0  0  0  0  0  0  0  0  0  0  0  0
  128.8280  129.1580  123.1900 O   0  0  0  0  0  0  0  0  0  0  0  0
  128.8030  127.8430  123.5220 C   0  0  0  0  0  0  0  0  0  0  0  0
  127.9840  127.0230  123.1430 O   0  0  0  0  0  0  0  0  0  0  0  0
  129.9180  127.5190  124.4550 C   0  0  0  0  0  0  0  0  0  0  0  0
  129.9570  128.1780  125.6900 C   0  0  0  0  0  0  0  0  0  0  0  0
  130.9730  127.8990  126.6030 C   0  0  0  0  0  0  0  0  0  0  0  0
  131.9670  126.9740  126.2850 C   0  0  0  0  0  0  0  0  0  0  0  0
  131.9620  126.3200  125.0440 C   0  0  0  0  0  0  0  0  0  0  0  0
  133.0420  125.3230  124.7040 C   0  0  0  0  0  0  0  0  0  0  0  0
  134.3360  125.9150  124.1240 C   0  0  0  0  0  0  0  0  0  0  0  0
  135.4930  126.0270  125.0970 N   0  0  2  0  0  0  0  0  0  0  0  0
  136.1510  127.3780  125.1160 C   0  0  0  0  0  0  0  0  0  0  0  0
  136.4860  124.8830  125.0320 C   0  0  0  0  0  0  0  0  0  0  0  0
  135.8600  123.5620  125.3940 C   0  0  0  0  0  0  0  0  0  0  0  0
  135.8120  122.5160  124.4610 C   0  0  0  0  0  0  0  0  0  0  0  0
  135.2590  121.2830  124.8100 C   0  0  0  0  0  0  0  0  0  0  0  0
  134.7490  121.0840  126.0910 C   0  0  0  0  0  0  0  0  0  0  0  0
  134.7870  122.1170  127.0250 C   0  0  0  0  0  0  0  0  0  0  0  0
  135.3380  123.3520  126.6800 C   0  0  0  0  0  0  0  0  0  0  0  0
  130.9180  126.5860  124.1410 C   0  0  0  0  0  0  0  0  0  0  0  0
  127.0287  129.8630  122.4345 H   0  0  0  0  0  0  0  0  0  0  0  0
  128.4874  130.2561  121.4627 H   0  0  0  0  0  0  0  0  0  0  0  0
  127.8321  128.5836  121.4627 H   0  0  0  0  0  0  0  0  0  0  0  0
  129.1832  128.9185  125.9407 H   0  0  0  0  0  0  0  0  0  0  0  0
  130.9907  128.4100  127.5770 H   0  0  0  0  0  0  0  0  0  0  0  0
  132.7617  126.7554  127.0135 H   0  0  0  0  0  0  0  0  0  0  0  0
  133.3018  124.7791  125.6242 H   0  0  0  0  0  0  0  0  0  0  0  0
  132.6228  124.6848  123.9122 H   0  0  0  0  0  0  0  0  0  0  0  0
  134.6564  125.2762  123.2878 H   0  0  0  0  0  0  0  0  0  0  0  0
  134.0907  126.9448  123.8249 H   0  0  0  0  0  0  0  0  0  0  0  0
  135.0630  125.9320  126.0250 H   0  0  0  0  0  0  0  0  0  0  0  0
  136.3058  127.6958  126.1576 H   0  0  0  0  0  0  0  0  0  0  0  0
  137.1219  127.3202  124.6021 H   0  0  0  0  0  0  0  0  0  0  0  0
  135.5069  128.1068  124.6021 H   0  0  0  0  0  0  0  0  0  0  0  0
  136.8837  124.8174  124.0085 H   0  0  0  0  0  0  0  0  0  0  0  0
  137.2842  125.0882  125.7606 H   0  0  0  0  0  0  0  0  0  0  0  0
  136.2126  122.6683  123.4479 H   0  0  0  0  0  0  0  0  0  0  0  0
  135.2258  120.4674  124.0727 H   0  0  0  0  0  0  0  0  0  0  0  0
  134.3160  120.1107  126.3652 H   0  0  0  0  0  0  0  0  0  0  0  0
  134.3823  121.9591  128.0356 H   0  0  0  0  0  0  0  0  0  0  0  0
  135.3634  124.1654  127.4201 H   0  0  0  0  0  0  0  0  0  0  0  0
  130.8846  126.0567  123.1773 H   0  0  0  0  0  0  0  0  0  0  0  0
  1  2  1  0
  2  3  1  0
  3  4  2  0
  3  5  1  0
  5  6  1  0
  6  7  2  0
  7  8  1  0
  8  9  2  0
  9 10  1  0
 10 11  1  0
 11 12  1  0
 12 13  1  0
 12 14  1  0
 14 15  1  0
 15 16  2  0
 16 17  1  0
 17 18  2  0
 18 19  1  0
 19 20  2  0
  9 21  1  0
 21  5  2  0
 20 15  1  0
  1 22  1  0
  1 23  1  0
  1 24  1  0
  6 25  1  0
  7 26  1  0
  8 27  1  0
 10 28  1  0
 10 29  1  0
 11 30  1  0
 11 31  1  0
 12 32  1  1
 13 33  1  0
 13 34  1  0
 13 35  1  0
 14 36  1  0
 14 37  1  0
 16 38  1  0
 17 39  1  0
 18 40  1  0
 19 41  1  0
 20 42  1  0
 21 43  1  0
M  CHG  1  12   1
M  END
>  <meeko>  (11) 
{"is_sidechain": [false], "free_energy": -6.434, "intermolecular_energy": -10.908, "internal_energy": -0.633}

$$$$
seed-5301
     RDKit          3D

 43 44  0  0  0  0  0  0  0  0999 V2000
  135.4100  121.9880  127.3740 C   0  0  0  0  0  0  0  0  0  0  0  0
  134.8590  121.7840  126.0700 O   0  0  0  0  0  0  0  0  0  0  0  0
  133.5090  121.9150  126.0230 C   0  0  0  0  0  0  0  0  0  0  0  0
  132.6940  121.0650  126.3380 O   0  0  0  0  0  0  0  0  0  0  0  0
  133.1340  123.2570  125.4980 C   0  0  0  0  0  0  0  0  0  0  0  0
  132.8500  124.2710  126.4220 C   0  0  0  0  0  0  0  0  0  0  0  0
  132.5060  125.5480  125.9790 C   0  0  0  0  0  0  0  0  0  0  0  0
  132.4290  125.8200  124.6130 C   0  0  0  0  0  0  0  0  0  0  0  0
  132.6860  124.8140  123.6700 C   0  0  0  0  0  0  0  0  0  0  0  0
  132.5960  125.1130  122.1940 C   0  0  0  0  0  0  0  0  0  0  0  0
  133.6200  124.3880  121.3060 C   0  0  0  0  0  0  0  0  0  0  0  0
  134.6560  125.2780  120.6490 N   0  0  2  0  0  0  0  0  0  0  0  0
  134.5780  125.3100  119.1490 C   0  0  0  0  0  0  0  0  0  0  0  0
  136.0690  125.0910  121.1660 C   0  0  0  0  0  0  0  0  0  0  0  0
  136.1870  125.4080  122.6340 C   0  0  0  0  0  0  0  0  0  0  0  0
  135.9990  126.7170  123.0990 C   0  0  0  0  0  0  0  0  0  0  0  0
  136.0780  127.0010  124.4640 C   0  0  0  0  0  0  0  0  0  0  0  0
  136.3450  125.9820  125.3740 C   0  0  0  0  0  0  0  0  0  0  0  0
  136.5390  124.6780  124.9240 C   0  0  0  0  0  0  0  0  0  0  0  0
  136.4610  124.3890  123.5610 C   0  0  0  0  0  0  0  0  0  0  0  0
  133.0580  123.5380  124.1240 C   0  0  0  0  0  0  0  0  0  0  0  0
  134.6645  121.7120  128.1343 H   0  0  0  0  0  0  0  0  0  0  0  0
  136.3065  121.3622  127.4953 H   0  0  0  0  0  0  0  0  0  0  0  0
  135.6828  123.0467  127.4953 H   0  0  0  0  0  0  0  0  0  0  0  0
  132.8985  124.0594  127.5004 H   0  0  0  0  0  0  0  0  0  0  0  0
  132.2947  126.3432  126.7091 H   0  0  0  0  0  0  0  0  0  0  0  0
  132.1645  126.8320  124.2725 H   0  0  0  0  0  0  0  0  0  0  0  0
  131.5900  124.8287  121.8518 H   0  0  0  0  0  0  0  0  0  0  0  0
  132.8142  126.1862  122.0904 H   0  0  0  0  0  0  0  0  0  0  0  0
  134.1502  123.6533  121.9298 H   0  0  0  0  0  0  0  0  0  0  0  0
  133.0436  123.9367  120.4850 H   0  0  0  0  0  0  0  0  0  0  0  0
  134.4070  126.2310  120.9440 H   0  0  0  0  0  0  0  0  0  0  0  0
  133.6010  125.7108  118.8411 H   0  0  0  0  0  0  0  0  0  0  0  0
  135.3788  125.9523  118.7538 H   0  0  0  0  0  0  0  0  0  0  0  0
  134.6971  124.2904  118.7538 H   0  0  0  0  0  0  0  0  0  0  0  0
  136.3693  124.0452  121.0046 H   0  0  0  0  0  0  0  0  0  0  0  0
  136.7226  125.7856  120.6180 H   0  0  0  0  0  0  0  0  0  0  0  0
  135.7878  127.5258  122.3840 H   0  0  0  0  0  0  0  0  0  0  0  0
  135.9291  128.0309  124.8205 H   0  0  0  0  0  0  0  0  0  0  0  0
  136.4028  126.2066  126.4493 H   0  0  0  0  0  0  0  0  0  0  0  0
  136.7540  123.8748  125.6442 H   0  0  0  0  0  0  0  0  0  0  0  0
  136.6149  123.3577  123.2107 H   0  0  0  0  0  0  0  0  0  0  0  0
  133.2927  122.7490  123.3944 H   0  0  0  0  0  0  0  0  0  0  0  0
  1  2  1  0
  2  3  1  0
  3  4  2  0
  3  5  1  0
  5  6  1  0
  6  7  2  0
  7  8  1  0
  8  9  2  0
  9 10  1  0
 10 11  1  0
 11 12  1  0
 12 13  1  0
 12 14  1  0
 14 15  1  0
 15 16  2  0
 16 17  1  0
 17 18  2  0
 18 19  1  0
 19 20  2  0
  9 21  1  0
 21  5  2  0
 20 15  1  0
  1 22  1  0
  1 23  1  0
  1 24  1  0
  6 25  1  0
  7 26  1  0
  8 27  1  0
 10 28  1  0
 10 29  1  0
 11 30  1  0
 11 31  1  0
 12 32  1  1
 13 33  1  0
 13 34  1  0
 13 35  1  0
 14 36  1  0
 14 37  1  0
 16 38  1  0
 17 39  1  0
 18 40  1  0
 19 41  1  0
 20 42  1  0
 21 43  1  0
M  CHG  1  12   1
M  END
>  <meeko>  (12) 
{"is_sidechain": [false], "free_energy": -6.43, "intermolecular_energy": -9.144, "internal_energy": -2.391}

$$$$
seed-5301
     RDKit          3D

 43 44  0  0  0  0  0  0  0  0999 V2000
  134.9980  121.0360  125.5030 C   0  0  0  0  0  0  0  0  0  0  0  0
  134.0770  121.7350  126.3460 O   0  0  0  0  0  0  0  0  0  0  0  0
  134.4520  123.0090  126.6230 C   0  0  0  0  0  0  0  0  0  0  0  0
  135.3600  123.3450  127.3660 O   0  0  0  0  0  0  0  0  0  0  0  0
  133.5760  123.9780  125.9080 C   0  0  0  0  0  0  0  0  0  0  0  0
  132.3020  124.2270  126.4330 C   0  0  0  0  0  0  0  0  0  0  0  0
  131.4500  125.1350  125.8060 C   0  0  0  0  0  0  0  0  0  0  0  0
  131.8560  125.7910  124.6440 C   0  0  0  0  0  0  0  0  0  0  0  0
  133.1180  125.5390  124.0870 C   0  0  0  0  0  0  0  0  0  0  0  0
  133.5500  126.2480  122.8270 C   0  0  0  0  0  0  0  0  0  0  0  0
  133.4590  125.4220  121.5350 C   0  0  0  0  0  0  0  0  0  0  0  0
  134.7860  124.9940  120.9420 N   0  0  2  0  0  0  0  0  0  0  0  0
  135.9860  125.5710  121.6380 C   0  0  0  0  0  0  0  0  0  0  0  0
  134.8690  125.1010  119.4310 C   0  0  0  0  0  0  0  0  0  0  0  0
  134.9120  123.7510  118.7640 C   0  0  0  0  0  0  0  0  0  0  0  0
  135.3210  122.6150  119.4780 C   0  0  0  0  0  0  0  0  0  0  0  0
  135.3300  121.3610  118.8660 C   0  0  0  0  0  0  0  0  0  0  0  0
  134.9330  121.2300  117.5380 C   0  0  0  0  0  0  0  0  0  0  0  0
  134.5310  122.3520  116.8160 C   0  0  0  0  0  0  0  0  0  0  0  0
  134.5200  123.6080  117.4240 C   0  0  0  0  0  0  0  0  0  0  0  0
  133.9810  124.6430  124.7400 C   0  0  0  0  0  0  0  0  0  0  0  0
  135.7207  120.4875  126.1250 H   0  0  0  0  0  0  0  0  0  0  0  0
  134.4477  120.3261  124.8680 H   0  0  0  0  0  0  0  0  0  0  0  0
  135.5336  121.7570  124.8680 H   0  0  0  0  0  0  0  0  0  0  0  0
  131.9724  123.7045  127.3431 H   0  0  0  0  0  0  0  0  0  0  0  0
  130.4544  125.3347  126.2290 H   0  0  0  0  0  0  0  0  0  0  0  0
  131.1806  126.5121  124.1605 H   0  0  0  0  0  0  0  0  0  0  0  0
  132.9150  127.1379  122.7050 H   0  0  0  0  0  0  0  0  0  0  0  0
  134.6172  126.4777  122.9623 H   0  0  0  0  0  0  0  0  0  0  0  0
  132.8762  124.5148  121.7526 H   0  0  0  0  0  0  0  0  0  0  0  0
  132.9911  126.0795  120.7875 H   0  0  0  0  0  0  0  0  0  0  0  0
  134.8390  123.9840  121.1230 H   0  0  0  0  0  0  0  0  0  0  0  0
  135.8459  125.5036  122.7270 H   0  0  0  0  0  0  0  0  0  0  0  0
  136.8845  125.0065  121.3483 H   0  0  0  0  0  0  0  0  0  0  0  0
  136.1061  126.6253  121.3483 H   0  0  0  0  0  0  0  0  0  0  0  0
  133.9872  125.6480  119.0661 H   0  0  0  0  0  0  0  0  0  0  0  0
  135.8010  125.6295  119.1817 H   0  0  0  0  0  0  0  0  0  0  0  0
  135.6367  122.7133  120.5271 H   0  0  0  0  0  0  0  0  0  0  0  0
  135.6511  120.4750  119.4334 H   0  0  0  0  0  0  0  0  0  0  0  0
  134.9367  120.2401  117.0584 H   0  0  0  0  0  0  0  0  0  0  0  0
  134.2220  122.2475  115.7655 H   0  0  0  0  0  0  0  0  0  0  0  0
  134.2023  124.4909  116.8498 H   0  0  0  0  0  0  0  0  0  0  0  0
  134.9858  124.4605  124.3312 H   0  0  0  0  0  0  0  0  0  0  0  0
  1  2  1  0
  2  3  1  0
  3  4  2  0
  3  5  1  0
  5  6  1  0
  6  7  2  0
  7  8  1  0
  8  9  2  0
  9 10  1  0
 10 11  1  0
 11 12  1  0
 12 13  1  0
 12 14  1  0
 14 15  1  0
 15 16  2  0
 16 17  1  0
 17 18  2  0
 18 19  1  0
 19 20  2  0
  9 21  1  0
 21  5  2  0
 20 15  1  0
  1 22  1  0
  1 23  1  0
  1 24  1  0
  6 25  1  0
  7 26  1  0
  8 27  1  0
 10 28  1  0
 10 29  1  0
 11 30  1  0
 11 31  1  0
 12 32  1  6
 13 33  1  0
 13 34  1  0
 13 35  1  0
 14 36  1  0
 14 37  1  0
 16 38  1  0
 17 39  1  0
 18 40  1  0
 19 41  1  0
 20 42  1  0
 21 43  1  0
M  CHG  1  12   1
M  END
>  <meeko>  (13) 
{"is_sidechain": [false], "free_energy": -6.285, "intermolecular_energy": -10.731, "internal_energy": -0.599}

$$$$
seed-5301
     RDKit          3D

 43 44  0  0  0  0  0  0  0  0999 V2000
  133.4400  123.8190  116.9690 C   0  0  0  0  0  0  0  0  0  0  0  0
  133.9360  124.8170  117.8660 O   0  0  0  0  0  0  0  0  0  0  0  0
  134.7290  124.3200  118.8480 C   0  0  0  0  0  0  0  0  0  0  0  0
  135.5800  123.4560  118.7150 O   0  0  0  0  0  0  0  0  0  0  0  0
  134.4060  124.9600  120.1530 C   0  0  0  0  0  0  0  0  0  0  0  0
  133.0990  124.8400  120.6400 C   0  0  0  0  0  0  0  0  0  0  0  0
  132.7510  125.4110  121.8640 C   0  0  0  0  0  0  0  0  0  0  0  0
  133.6990  126.1180  122.6030 C   0  0  0  0  0  0  0  0  0  0  0  0
  135.0080  126.2710  122.1240 C   0  0  0  0  0  0  0  0  0  0  0  0
  136.0280  127.0400  122.9260 C   0  0  0  0  0  0  0  0  0  0  0  0
  137.0040  126.1890  123.7530 C   0  0  0  0  0  0  0  0  0  0  0  0
  136.3650  125.1100  124.6040 N   0  0  2  0  0  0  0  0  0  0  0  0
  136.9080  125.0270  126.0030 C   0  0  0  0  0  0  0  0  0  0  0  0
  136.2530  123.7560  123.9300 C   0  0  0  0  0  0  0  0  0  0  0  0
  135.2280  122.8720  124.5910 C   0  0  0  0  0  0  0  0  0  0  0  0
  133.9350  123.3510  124.8520 C   0  0  0  0  0  0  0  0  0  0  0  0
  132.9780  122.5190  125.4350 C   0  0  0  0  0  0  0  0  0  0  0  0
  133.3030  121.2050  125.7640 C   0  0  0  0  0  0  0  0  0  0  0  0
  134.5840  120.7200  125.5160 C   0  0  0  0  0  0  0  0  0  0  0  0
  135.5450  121.5480  124.9320 C   0  0  0  0  0  0  0  0  0  0  0  0
  135.3580  125.6690  120.9030 C   0  0  0  0  0  0  0  0  0  0  0  0
  133.0235  122.9809  117.5470 H   0  0  0  0  0  0  0  0  0  0  0  0
  132.6533  124.2541  116.3351 H   0  0  0  0  0  0  0  0  0  0  0  0
  134.2619  123.4546  116.3351 H   0  0  0  0  0  0  0  0  0  0  0  0
  132.3441  124.2937  120.0555 H   0  0  0  0  0  0  0  0  0  0  0  0
  131.7257  125.3033  122.2476 H   0  0  0  0  0  0  0  0  0  0  0  0
  133.4174  126.5596  123.5703 H   0  0  0  0  0  0  0  0  0  0  0  0
  136.6195  127.6485  122.2261 H   0  0  0  0  0  0  0  0  0  0  0  0
  135.4534  127.6307  123.6546 H   0  0  0  0  0  0  0  0  0  0  0  0
  137.7037  125.7027  123.0574 H   0  0  0  0  0  0  0  0  0  0  0  0
  137.4896  126.8818  124.4560 H   0  0  0  0  0  0  0  0  0  0  0  0
  135.3900  125.4120  124.7190 H   0  0  0  0  0  0  0  0  0  0  0  0
  136.0862  125.1526  126.7233 H   0  0  0  0  0  0  0  0  0  0  0  0
  137.3819  124.0460  126.1548 H   0  0  0  0  0  0  0  0  0  0  0  0
  137.6533  125.8217  126.1548 H   0  0  0  0  0  0  0  0  0  0  0  0
  135.9653  123.9066  122.8790 H   0  0  0  0  0  0  0  0  0  0  0  0
  137.2302  123.2575  124.0113 H   0  0  0  0  0  0  0  0  0  0  0  0
  133.6742  124.3884  124.5956 H   0  0  0  0  0  0  0  0  0  0  0  0
  131.9661  122.9013  125.6349 H   0  0  0  0  0  0  0  0  0  0  0  0
  132.5464  120.5498  126.2204 H   0  0  0  0  0  0  0  0  0  0  0  0
  134.8396  119.6833  125.7804 H   0  0  0  0  0  0  0  0  0  0  0  0
  136.5560  121.1604  124.7382 H   0  0  0  0  0  0  0  0  0  0  0  0
  136.3896  125.7543  120.5308 H   0  0  0  0  0  0  0  0  0  0  0  0
  1  2  1  0
  2  3  1  0
  3  4  2  0
  3  5  1  0
  5  6  1  0
  6  7  2  0
  7  8  1  0
  8  9  2  0
  9 10  1  0
 10 11  1  0
 11 12  1  0
 12 13  1  0
 12 14  1  0
 14 15  1  0
 15 16  2  0
 16 17  1  0
 17 18  2  0
 18 19  1  0
 19 20  2  0
  9 21  1  0
 21  5  2  0
 20 15  1  0
  1 22  1  0
  1 23  1  0
  1 24  1  0
  6 25  1  0
  7 26  1  0
  8 27  1  0
 10 28  1  0
 10 29  1  0
 11 30  1  0
 11 31  1  0
 12 32  1  1
 13 33  1  0
 13 34  1  0
 13 35  1  0
 14 36  1  0
 14 37  1  0
 16 38  1  0
 17 39  1  0
 18 40  1  0
 19 41  1  0
 20 42  1  0
 21 43  1  0
M  CHG  1  12   1
M  END
>  <meeko>  (14) 
{"is_sidechain": [false], "free_energy": -6.232, "intermolecular_energy": -10.32, "internal_energy": -0.936}

$$$$
seed-5301
     RDKit          3D

 43 44  0  0  0  0  0  0  0  0999 V2000
  135.1490  122.4050  116.1110 C   0  0  0  0  0  0  0  0  0  0  0  0
  134.4650  122.5230  117.3620 O   0  0  0  0  0  0  0  0  0  0  0  0
  134.1930  123.8040  117.7160 C   0  0  0  0  0  0  0  0  0  0  0  0
  133.6380  124.6390  117.0210 O   0  0  0  0  0  0  0  0  0  0  0  0
  134.6940  124.0830  119.0900 C   0  0  0  0  0  0  0  0  0  0  0  0
  135.8250  123.3850  119.5340 C   0  0  0  0  0  0  0  0  0  0  0  0
  136.3400  123.6210  120.8080 C   0  0  0  0  0  0  0  0  0  0  0  0
  135.7230  124.5420  121.6540 C   0  0  0  0  0  0  0  0  0  0  0  0
  134.5760  125.2340  121.2410 C   0  0  0  0  0  0  0  0  0  0  0  0
  133.9100  126.2260  122.1620 C   0  0  0  0  0  0  0  0  0  0  0  0
  133.9520  125.8760  123.6580 C   0  0  0  0  0  0  0  0  0  0  0  0
  132.6680  125.3060  124.2290 N   0  0  2  0  0  0  0  0  0  0  0  0
  132.2980  123.9560  123.6840 C   0  0  0  0  0  0  0  0  0  0  0  0
  131.5020  126.2760  124.2540 C   0  0  0  0  0  0  0  0  0  0  0  0
  131.0470  126.5850  125.6570 C   0  0  0  0  0  0  0  0  0  0  0  0
  131.6100  127.6540  126.3700 C   0  0  0  0  0  0  0  0  0  0  0  0
  131.1630  127.9570  127.6580 C   0  0  0  0  0  0  0  0  0  0  0  0
  130.1550  127.1960  128.2430 C   0  0  0  0  0  0  0  0  0  0  0  0
  129.5920  126.1290  127.5480 C   0  0  0  0  0  0  0  0  0  0  0  0
  130.0350  125.8220  126.2600 C   0  0  0  0  0  0  0  0  0  0  0  0
  134.0790  125.0110  119.9450 C   0  0  0  0  0  0  0  0  0  0  0  0
  136.2180  122.2206  116.2935 H   0  0  0  0  0  0  0  0  0  0  0  0
  134.7248  121.5668  115.5388 H   0  0  0  0  0  0  0  0  0  0  0  0
  135.0302  123.3369  115.5388 H   0  0  0  0  0  0  0  0  0  0  0  0
  136.3082  122.6484  118.8752 H   0  0  0  0  0  0  0  0  0  0  0  0
  137.2354  123.0792  121.1467 H   0  0  0  0  0  0  0  0  0  0  0  0
  136.1403  124.7272  122.6548 H   0  0  0  0  0  0  0  0  0  0  0  0
  134.4066  127.1983  122.0280 H   0  0  0  0  0  0  0  0  0  0  0  0
  132.8459  126.2275  121.8833 H   0  0  0  0  0  0  0  0  0  0  0  0
  134.7499  125.1344  123.8107 H   0  0  0  0  0  0  0  0  0  0  0  0
  134.1236  126.8253  124.1866 H   0  0  0  0  0  0  0  0  0  0  0  0
  132.8760  125.1400  125.2220 H   0  0  0  0  0  0  0  0  0  0  0  0
  132.1082  123.2636  124.5174 H   0  0  0  0  0  0  0  0  0  0  0  0
  131.3912  124.0453  123.0678 H   0  0  0  0  0  0  0  0  0  0  0  0
  133.1236  123.5705  123.0678 H   0  0  0  0  0  0  0  0  0  0  0  0
  131.8105  127.2131  123.7674 H   0  0  0  0  0  0  0  0  0  0  0  0
  130.6612  125.8062  123.7226 H   0  0  0  0  0  0  0  0  0  0  0  0
  132.4080  128.2569  125.9121 H   0  0  0  0  0  0  0  0  0  0  0  0
  131.6079  128.7977  128.2105 H   0  0  0  0  0  0  0  0  0  0  0  0
  129.8025  127.4381  129.2565 H   0  0  0  0  0  0  0  0  0  0  0  0
  128.7976  125.5275  128.0140 H   0  0  0  0  0  0  0  0  0  0  0  0
  129.5884  124.9774  125.7148 H   0  0  0  0  0  0  0  0  0  0  0  0
  133.1980  125.5702  119.5969 H   0  0  0  0  0  0  0  0  0  0  0  0
  1  2  1  0
  2  3  1  0
  3  4  2  0
  3  5  1  0
  5  6  1  0
  6  7  2  0
  7  8  1  0
  8  9  2  0
  9 10  1  0
 10 11  1  0
 11 12  1  0
 12 13  1  0
 12 14  1  0
 14 15  1  0
 15 16  2  0
 16 17  1  0
 17 18  2  0
 18 19  1  0
 19 20  2  0
  9 21  1  0
 21  5  2  0
 20 15  1  0
  1 22  1  0
  1 23  1  0
  1 24  1  0
  6 25  1  0
  7 26  1  0
  8 27  1  0
 10 28  1  0
 10 29  1  0
 11 30  1  0
 11 31  1  0
 12 32  1  1
 13 33  1  0
 13 34  1  0
 13 35  1  0
 14 36  1  0
 14 37  1  0
 16 38  1  0
 17 39  1  0
 18 40  1  0
 19 41  1  0
 20 42  1  0
 21 43  1  0
M  CHG  1  12   1
M  END
>  <meeko>  (15) 
{"is_sidechain": [false], "free_energy": -6.184, "intermolecular_energy": -10.725, "internal_energy": -0.464}

$$$$
seed-5301
     RDKit          3D

 43 44  0  0  0  0  0  0  0  0999 V2000
  129.7390  126.6930  128.1300 C   0  0  0  0  0  0  0  0  0  0  0  0
  130.0310  125.3920  127.6110 O   0  0  0  0  0  0  0  0  0  0  0  0
  129.9950  125.3250  126.2560 C   0  0  0  0  0  0  0  0  0  0  0  0
  128.9940  125.3800  125.5610 O   0  0  0  0  0  0  0  0  0  0  0  0
  131.3670  125.1450  125.7060 C   0  0  0  0  0  0  0  0  0  0  0  0
  132.2730  124.3670  126.4370 C   0  0  0  0  0  0  0  0  0  0  0  0
  133.5660  124.1580  125.9570 C   0  0  0  0  0  0  0  0  0  0  0  0
  133.9680  124.7360  124.7520 C   0  0  0  0  0  0  0  0  0  0  0  0
  133.0850  125.5380  124.0160 C   0  0  0  0  0  0  0  0  0  0  0  0
  133.5280  126.1640  122.7160 C   0  0  0  0  0  0  0  0  0  0  0  0
  133.4670  125.2490  121.4830 C   0  0  0  0  0  0  0  0  0  0  0  0
  134.8060  124.9090  120.8590 N   0  0  2  0  0  0  0  0  0  0  0  0
  135.9820  125.5610  121.5310 C   0  0  0  0  0  0  0  0  0  0  0  0
  134.8470  125.0240  119.3480 C   0  0  0  0  0  0  0  0  0  0  0  0
  134.8690  123.6780  118.6720 C   0  0  0  0  0  0  0  0  0  0  0  0
  134.5110  123.5510  117.3220 C   0  0  0  0  0  0  0  0  0  0  0  0
  134.5630  122.3070  116.6920 C   0  0  0  0  0  0  0  0  0  0  0  0
  134.9710  121.1810  117.4020 C   0  0  0  0  0  0  0  0  0  0  0  0
  135.3240  121.2930  118.7450 C   0  0  0  0  0  0  0  0  0  0  0  0
  135.2740  122.5350  119.3800 C   0  0  0  0  0  0  0  0  0  0  0  0
  131.7760  125.7210  124.4930 C   0  0  0  0  0  0  0  0  0  0  0  0
  129.7466  126.6593  129.2295 H   0  0  0  0  0  0  0  0  0  0  0  0
  130.4993  127.4066  127.7798 H   0  0  0  0  0  0  0  0  0  0  0  0
  128.7466  127.0132  127.7798 H   0  0  0  0  0  0  0  0  0  0  0  0
  131.9641  123.9191  127.3930 H   0  0  0  0  0  0  0  0  0  0  0  0
  134.2702  123.5363  126.5294 H   0  0  0  0  0  0  0  0  0  0  0  0
  134.9869  124.5606  124.3765 H   0  0  0  0  0  0  0  0  0  0  0  0
  132.8842  127.0349  122.5232 H   0  0  0  0  0  0  0  0  0  0  0  0
  134.5901  126.4167  122.8506 H   0  0  0  0  0  0  0  0  0  0  0  0
  132.9833  124.3076  121.7826 H   0  0  0  0  0  0  0  0  0  0  0  0
  132.9091  125.8084  120.7176 H   0  0  0  0  0  0  0  0  0  0  0  0
  134.9280  123.9040  121.0350 H   0  0  0  0  0  0  0  0  0  0  0  0
  135.8634  125.4952  122.6226 H   0  0  0  0  0  0  0  0  0  0  0  0
  136.9071  125.0469  121.2311 H   0  0  0  0  0  0  0  0  0  0  0  0
  136.0361  126.6179  121.2311 H   0  0  0  0  0  0  0  0  0  0  0  0
  133.9563  125.5745  119.0109 H   0  0  0  0  0  0  0  0  0  0  0  0
  135.7728  125.5521  119.0760 H   0  0  0  0  0  0  0  0  0  0  0  0
  134.1873  124.4372  116.7564 H   0  0  0  0  0  0  0  0  0  0  0  0
  134.2812  122.2158  115.6326 H   0  0  0  0  0  0  0  0  0  0  0  0
  135.0146  120.2021  116.9021 H   0  0  0  0  0  0  0  0  0  0  0  0
  135.6425  120.4017  119.3056 H   0  0  0  0  0  0  0  0  0  0  0  0
  135.5533  122.6188  120.4406 H   0  0  0  0  0  0  0  0  0  0  0  0
  131.0637  126.3225  123.9092 H   0  0  0  0  0  0  0  0  0  0  0  0
  1  2  1  0
  2  3  1  0
  3  4  2  0
  3  5  1  0
  5  6  1  0
  6  7  2  0
  7  8  1  0
  8  9  2  0
  9 10  1  0
 10 11  1  0
 11 12  1  0
 12 13  1  0
 12 14  1  0
 14 15  1  0
 15 16  2  0
 16 17  1  0
 17 18  2  0
 18 19  1  0
 19 20  2  0
  9 21  1  0
 21  5  2  0
 20 15  1  0
  1 22  1  0
  1 23  1  0
  1 24  1  0
  6 25  1  0
  7 26  1  0
  8 27  1  0
 10 28  1  0
 10 29  1  0
 11 30  1  0
 11 31  1  0
 12 32  1  6
 13 33  1  0
 13 34  1  0
 13 35  1  0
 14 36  1  0
 14 37  1  0
 16 38  1  0
 17 39  1  0
 18 40  1  0
 19 41  1  0
 20 42  1  0
 21 43  1  0
M  CHG  1  12   1
M  END
>  <meeko>  (16) 
{"is_sidechain": [false], "free_energy": -6.14, "intermolecular_energy": -10.595, "internal_energy": -0.531}

$$$$
seed-5301
     RDKit          3D

 43 44  0  0  0  0  0  0  0  0999 V2000
  127.3370  123.0330  129.1410 C   0  0  0  0  0  0  0  0  0  0  0  0
  128.3360  123.1680  128.1260 O   0  0  0  0  0  0  0  0  0  0  0  0
  128.3520  124.3900  127.5380 C   0  0  0  0  0  0  0  0  0  0  0  0
  127.3910  125.1260  127.3830 O   0  0  0  0  0  0  0  0  0  0  0  0
  129.7250  124.7230  127.0660 C   0  0  0  0  0  0  0  0  0  0  0  0
  130.1310  126.0630  127.1100 C   0  0  0  0  0  0  0  0  0  0  0  0
  131.4110  126.4230  126.6920 C   0  0  0  0  0  0  0  0  0  0  0  0
  132.2910  125.4530  126.2120 C   0  0  0  0  0  0  0  0  0  0  0  0
  131.8980  124.1090  126.1350 C   0  0  0  0  0  0  0  0  0  0  0  0
  132.8520  123.0650  125.6110 C   0  0  0  0  0  0  0  0  0  0  0  0
  134.3380  123.3090  125.9150 C   0  0  0  0  0  0  0  0  0  0  0  0
  135.2980  122.9560  124.7960 N   0  0  2  0  0  0  0  0  0  0  0  0
  136.2610  121.8530  125.1360 C   0  0  0  0  0  0  0  0  0  0  0  0
  135.9680  124.1470  124.1380 C   0  0  0  0  0  0  0  0  0  0  0  0
  135.2340  124.6050  122.9050 C   0  0  0  0  0  0  0  0  0  0  0  0
  134.3160  125.6630  122.9720 C   0  0  0  0  0  0  0  0  0  0  0  0
  133.6620  126.1050  121.8210 C   0  0  0  0  0  0  0  0  0  0  0  0
  133.9170  125.4950  120.5950 C   0  0  0  0  0  0  0  0  0  0  0  0
  134.8230  124.4400  120.5160 C   0  0  0  0  0  0  0  0  0  0  0  0
  135.4790  123.9940  121.6640 C   0  0  0  0  0  0  0  0  0  0  0  0
  130.6160  123.7510  126.5850 C   0  0  0  0  0  0  0  0  0  0  0  0
  127.8102  123.0969  130.1320 H   0  0  0  0  0  0  0  0  0  0  0  0
  126.5961  123.8392  129.0358 H   0  0  0  0  0  0  0  0  0  0  0  0
  126.8366  122.0591  129.0358 H   0  0  0  0  0  0  0  0  0  0  0  0
  129.4370  126.8341  127.4758 H   0  0  0  0  0  0  0  0  0  0  0  0
  131.7281  127.4752  126.7408 H   0  0  0  0  0  0  0  0  0  0  0  0
  133.3019  125.7448  125.8911 H   0  0  0  0  0  0  0  0  0  0  0  0
  132.5708  122.0978  126.0531 H   0  0  0  0  0  0  0  0  0  0  0  0
  132.7605  123.0977  124.5153 H   0  0  0  0  0  0  0  0  0  0  0  0
  134.4658  124.3765  126.1475 H   0  0  0  0  0  0  0  0  0  0  0  0
  134.5895  122.6407  126.7517 H   0  0  0  0  0  0  0  0  0  0  0  0
  134.7020  122.5640  124.0560 H   0  0  0  0  0  0  0  0  0  0  0  0
  136.3416  121.7607  126.2292 H   0  0  0  0  0  0  0  0  0  0  0  0
  135.8965  120.9049  124.7138 H   0  0  0  0  0  0  0  0  0  0  0  0
  137.2496  122.0863  124.7138 H   0  0  0  0  0  0  0  0  0  0  0  0
  136.0015  124.9772  124.8589 H   0  0  0  0  0  0  0  0  0  0  0  0
  136.9792  123.8392  123.8335 H   0  0  0  0  0  0  0  0  0  0  0  0
  134.1101  126.1476  123.9378 H   0  0  0  0  0  0  0  0  0  0  0  0
  132.9442  126.9363  121.8821 H   0  0  0  0  0  0  0  0  0  0  0  0
  133.4025  125.8467  119.6886 H   0  0  0  0  0  0  0  0  0  0  0  0
  135.0216  123.9578  119.5475 H   0  0  0  0  0  0  0  0  0  0  0  0
  136.1921  123.1592  121.5968 H   0  0  0  0  0  0  0  0  0  0  0  0
  130.3067  122.6957  126.5600 H   0  0  0  0  0  0  0  0  0  0  0  0
  1  2  1  0
  2  3  1  0
  3  4  2  0
  3  5  1  0
  5  6  1  0
  6  7  2  0
  7  8  1  0
  8  9  2  0
  9 10  1  0
 10 11  1  0
 11 12  1  0
 12 13  1  0
 12 14  1  0
 14 15  1  0
 15 16  2  0
 16 17  1  0
 17 18  2  0
 18 19  1  0
 19 20  2  0
  9 21  1  0
 21  5  2  0
 20 15  1  0
  1 22  1  0
  1 23  1  0
  1 24  1  0
  6 25  1  0
  7 26  1  0
  8 27  1  0
 10 28  1  0
 10 29  1  0
 11 30  1  0
 11 31  1  0
 12 32  1  6
 13 33  1  0
 13 34  1  0
 13 35  1  0
 14 36  1  0
 14 37  1  0
 16 38  1  0
 17 39  1  0
 18 40  1  0
 19 41  1  0
 20 42  1  0
 21 43  1  0
M  CHG  1  12   1
M  END
>  <meeko>  (17) 
{"is_sidechain": [false], "free_energy": -6.064, "intermolecular_energy": -10.165, "internal_energy": -0.855}

$$$$
seed-5301
     RDKit          3D

 43 44  0  0  0  0  0  0  0  0999 V2000
  128.6340  123.9420  126.4510 C   0  0  0  0  0  0  0  0  0  0  0  0
  129.6330  123.6270  127.4260 O   0  0  0  0  0  0  0  0  0  0  0  0
  130.8240  123.2650  126.8860 C   0  0  0  0  0  0  0  0  0  0  0  0
  131.3440  122.1640  126.9680 O   0  0  0  0  0  0  0  0  0  0  0  0
  131.4510  124.4180  126.1840 C   0  0  0  0  0  0  0  0  0  0  0  0
  131.4550  125.6610  126.8290 C   0  0  0  0  0  0  0  0  0  0  0  0
  132.0420  126.7680  126.2180 C   0  0  0  0  0  0  0  0  0  0  0  0
  132.6140  126.6480  124.9510 C   0  0  0  0  0  0  0  0  0  0  0  0
  132.6000  125.4200  124.2750 C   0  0  0  0  0  0  0  0  0  0  0  0
  133.2160  125.2970  122.9040 C   0  0  0  0  0  0  0  0  0  0  0  0
  133.8140  123.9230  122.5630 C   0  0  0  0  0  0  0  0  0  0  0  0
  135.2770  123.9290  122.1700 N   0  0  2  0  0  0  0  0  0  0  0  0
  135.5160  123.8710  120.6870 C   0  0  0  0  0  0  0  0  0  0  0  0
  136.1470  122.9610  122.9490 C   0  0  0  0  0  0  0  0  0  0  0  0
  135.6350  122.7340  124.3480 C   0  0  0  0  0  0  0  0  0  0  0  0
  135.0900  121.4950  124.7150 C   0  0  0  0  0  0  0  0  0  0  0  0
  134.6460  121.2770  126.0200 C   0  0  0  0  0  0  0  0  0  0  0  0
  134.7400  122.2930  126.9680 C   0  0  0  0  0  0  0  0  0  0  0  0
  135.2740  123.5300  126.6140 C   0  0  0  0  0  0  0  0  0  0  0  0
  135.7190  123.7520  125.3100 C   0  0  0  0  0  0  0  0  0  0  0  0
  132.0310  124.3030  124.9110 C   0  0  0  0  0  0  0  0  0  0  0  0
  127.7041  124.2352  126.9603 H   0  0  0  0  0  0  0  0  0  0  0  0
  128.9851  124.7730  125.8216 H   0  0  0  0  0  0  0  0  0  0  0  0
  128.4449  123.0599  125.8216 H   0  0  0  0  0  0  0  0  0  0  0  0
  130.9930  125.7643  127.8219 H   0  0  0  0  0  0  0  0  0  0  0  0
  132.0543  127.7384  126.7359 H   0  0  0  0  0  0  0  0  0  0  0  0
  133.0802  127.5250  124.4783 H   0  0  0  0  0  0  0  0  0  0  0  0
  132.4355  125.5196  122.1616 H   0  0  0  0  0  0  0  0  0  0  0  0
  134.0594  126.0030  122.8898 H   0  0  0  0  0  0  0  0  0  0  0  0
  133.7027  123.2762  123.4457 H   0  0  0  0  0  0  0  0  0  0  0  0
  133.2650  123.5650  121.6796 H   0  0  0  0  0  0  0  0  0  0  0  0
  135.6200  124.8560  122.4530 H   0  0  0  0  0  0  0  0  0  0  0  0
  136.5686  123.6156  120.4950 H   0  0  0  0  0  0  0  0  0  0  0  0
  134.8654  123.1047  120.2404 H   0  0  0  0  0  0  0  0  0  0  0  0
  135.2890  124.8503  120.2404 H   0  0  0  0  0  0  0  0  0  0  0  0
  136.1674  121.9975  122.4186 H   0  0  0  0  0  0  0  0  0  0  0  0
  137.1537  123.3979  123.0248 H   0  0  0  0  0  0  0  0  0  0  0  0
  135.0120  120.6899  123.9695 H   0  0  0  0  0  0  0  0  0  0  0  0
  134.2213  120.3017  126.3002 H   0  0  0  0  0  0  0  0  0  0  0  0
  134.3924  122.1185  127.9969 H   0  0  0  0  0  0  0  0  0  0  0  0
  135.3450  124.3325  127.3629 H   0  0  0  0  0  0  0  0  0  0  0  0
  136.1381  124.7310  125.0347 H   0  0  0  0  0  0  0  0  0  0  0  0
  132.0404  123.3265  124.4047 H   0  0  0  0  0  0  0  0  0  0  0  0
  1  2  1  0
  2  3  1  0
  3  4  2  0
  3  5  1  0
  5  6  1  0
  6  7  2  0
  7  8  1  0
  8  9  2  0
  9 10  1  0
 10 11  1  0
 11 12  1  0
 12 13  1  0
 12 14  1  0
 14 15  1  0
 15 16  2  0
 16 17  1  0
 17 18  2  0
 18 19  1  0
 19 20  2  0
  9 21  1  0
 21  5  2  0
 20 15  1  0
  1 22  1  0
  1 23  1  0
  1 24  1  0
  6 25  1  0
  7 26  1  0
  8 27  1  0
 10 28  1  0
 10 29  1  0
 11 30  1  0
 11 31  1  0
 12 32  1  1
 13 33  1  0
 13 34  1  0
 13 35  1  0
 14 36  1  0
 14 37  1  0
 16 38  1  0
 17 39  1  0
 18 40  1  0
 19 41  1  0
 20 42  1  0
 21 43  1  0
M  CHG  1  12   1
M  END
>  <meeko>  (18) 
{"is_sidechain": [false], "free_energy": -6.024, "intermolecular_energy": -9.534, "internal_energy": -1.43}

$$$$
seed-5301
     RDKit          3D

 43 44  0  0  0  0  0  0  0  0999 V2000
  135.2400  121.0880  125.4230 C   0  0  0  0  0  0  0  0  0  0  0  0
  135.0500  121.4480  124.0520 O   0  0  0  0  0  0  0  0  0  0  0  0
  135.7740  122.5290  123.6670 C   0  0  0  0  0  0  0  0  0  0  0  0
  136.9490  122.7340  123.9230 O   0  0  0  0  0  0  0  0  0  0  0  0
  134.9250  123.4770  122.8940 C   0  0  0  0  0  0  0  0  0  0  0  0
  135.2880  123.7580  121.5710 C   0  0  0  0  0  0  0  0  0  0  0  0
  134.5170  124.6290  120.8020 C   0  0  0  0  0  0  0  0  0  0  0  0
  133.3880  125.2370  121.3500 C   0  0  0  0  0  0  0  0  0  0  0  0
  133.0190  124.9890  122.6800 C   0  0  0  0  0  0  0  0  0  0  0  0
  131.8000  125.6530  123.2690 C   0  0  0  0  0  0  0  0  0  0  0  0
  132.0460  126.5000  124.5280 C   0  0  0  0  0  0  0  0  0  0  0  0
  130.8130  126.8160  125.3500 N   0  0  2  0  0  0  0  0  0  0  0  0
  130.1020  128.0730  124.9360 C   0  0  0  0  0  0  0  0  0  0  0  0
  131.0100  126.7140  126.8510 C   0  0  0  0  0  0  0  0  0  0  0  0
  129.9610  125.8550  127.5070 C   0  0  0  0  0  0  0  0  0  0  0  0
  129.0760  126.4020  128.4470 C   0  0  0  0  0  0  0  0  0  0  0  0
  128.0850  125.6100  129.0300 C   0  0  0  0  0  0  0  0  0  0  0  0
  127.9700  124.2670  128.6800 C   0  0  0  0  0  0  0  0  0  0  0  0
  128.8460  123.7100  127.7520 C   0  0  0  0  0  0  0  0  0  0  0  0
  129.8380  124.4980  127.1670 C   0  0  0  0  0  0  0  0  0  0  0  0
  133.7850  124.0890  123.4400 C   0  0  0  0  0  0  0  0  0  0  0  0
  134.8247  121.8749  126.0697 H   0  0  0  0  0  0  0  0  0  0  0  0
  134.7264  120.1369  125.6269 H   0  0  0  0  0  0  0  0  0  0  0  0
  136.3150  120.9753  125.6269 H   0  0  0  0  0  0  0  0  0  0  0  0
  136.1840  123.2902  121.1371 H   0  0  0  0  0  0  0  0  0  0  0  0
  134.8003  124.8372  119.7597 H   0  0  0  0  0  0  0  0  0  0  0  0
  132.7816  125.9170  120.7337 H   0  0  0  0  0  0  0  0  0  0  0  0
  131.3673  126.3091  122.4994 H   0  0  0  0  0  0  0  0  0  0  0  0
  131.1348  124.8351  123.5828 H   0  0  0  0  0  0  0  0  0  0  0  0
  132.7521  125.9545  125.1713 H   0  0  0  0  0  0  0  0  0  0  0  0
  132.4291  127.4677  124.1721 H   0  0  0  0  0  0  0  0  0  0  0  0
  130.1530  126.0590  125.1340 H   0  0  0  0  0  0  0  0  0  0  0  0
  129.7878  128.6285  125.8319 H   0  0  0  0  0  0  0  0  0  0  0  0
  130.7806  128.6976  124.3365 H   0  0  0  0  0  0  0  0  0  0  0  0
  129.2171  127.8132  124.3365 H   0  0  0  0  0  0  0  0  0  0  0  0
  131.9999  126.2771  127.0492 H   0  0  0  0  0  0  0  0  0  0  0  0
  130.9272  127.7271  127.2714 H   0  0  0  0  0  0  0  0  0  0  0  0
  129.1631  127.4622  128.7270 H   0  0  0  0  0  0  0  0  0  0  0  0
  127.3945  126.0471  129.7663 H   0  0  0  0  0  0  0  0  0  0  0  0
  127.1861  123.6454  129.1373 H   0  0  0  0  0  0  0  0  0  0  0  0
  128.7560  122.6480  127.4798 H   0  0  0  0  0  0  0  0  0  0  0  0
  130.5281  124.0534  126.4348 H   0  0  0  0  0  0  0  0  0  0  0  0
  133.4884  123.8612  124.4745 H   0  0  0  0  0  0  0  0  0  0  0  0
  1  2  1  0
  2  3  1  0
  3  4  2  0
  3  5  1  0
  5  6  1  0
  6  7  2  0
  7  8  1  0
  8  9  2  0
  9 10  1  0
 10 11  1  0
 11 12  1  0
 12 13  1  0
 12 14  1  0
 14 15  1  0
 15 16  2  0
 16 17  1  0
 17 18  2  0
 18 19  1  0
 19 20  2  0
  9 21  1  0
 21  5  2  0
 20 15  1  0
  1 22  1  0
  1 23  1  0
  1 24  1  0
  6 25  1  0
  7 26  1  0
  8 27  1  0
 10 28  1  0
 10 29  1  0
 11 30  1  0
 11 31  1  0
 12 32  1  6
 13 33  1  0
 13 34  1  0
 13 35  1  0
 14 36  1  0
 14 37  1  0
 16 38  1  0
 17 39  1  0
 18 40  1  0
 19 41  1  0
 20 42  1  0
 21 43  1  0
M  CHG  1  12   1
M  END
>  <meeko>  (19) 
{"is_sidechain": [false], "free_energy": -6.024, "intermolecular_energy": -10.429, "internal_energy": -0.533}

$$$$
seed-5301
     RDKit          3D

 43 44  0  0  0  0  0  0  0  0999 V2000
  128.7480  127.8960  126.5990 C   0  0  0  0  0  0  0  0  0  0  0  0
  129.5100  127.1240  127.5320 O   0  0  0  0  0  0  0  0  0  0  0  0
  130.8470  127.1660  127.3090 C   0  0  0  0  0  0  0  0  0  0  0  0
  131.6310  127.9680  127.7900 O   0  0  0  0  0  0  0  0  0  0  0  0
  131.2510  126.0960  126.3560 C   0  0  0  0  0  0  0  0  0  0  0  0
  131.0260  124.7640  126.7250 C   0  0  0  0  0  0  0  0  0  0  0  0
  131.3740  123.7270  125.8600 C   0  0  0  0  0  0  0  0  0  0  0  0
  131.9640  124.0100  124.6280 C   0  0  0  0  0  0  0  0  0  0  0  0
  132.2200  125.3340  124.2470 C   0  0  0  0  0  0  0  0  0  0  0  0
  132.8620  125.6340  122.9150 C   0  0  0  0  0  0  0  0  0  0  0  0
  133.5560  124.4460  122.2290 C   0  0  0  0  0  0  0  0  0  0  0  0
  135.0440  124.6100  121.9950 N   0  0  2  0  0  0  0  0  0  0  0  0
  135.7890  125.2000  123.1590 C   0  0  0  0  0  0  0  0  0  0  0  0
  135.4100  125.2510  120.6700 C   0  0  0  0  0  0  0  0  0  0  0  0
  135.0360  124.3870  119.4940 C   0  0  0  0  0  0  0  0  0  0  0  0
  135.4920  123.0640  119.4080 C   0  0  0  0  0  0  0  0  0  0  0  0
  135.1180  122.2560  118.3330 C   0  0  0  0  0  0  0  0  0  0  0  0
  134.2870  122.7610  117.3370 C   0  0  0  0  0  0  0  0  0  0  0  0
  133.8310  124.0760  117.4080 C   0  0  0  0  0  0  0  0  0  0  0  0
  134.2030  124.8870  118.4810 C   0  0  0  0  0  0  0  0  0  0  0  0
  131.8410  126.3740  125.1120 C   0  0  0  0  0  0  0  0  0  0  0  0
  128.0777  128.5752  127.1462 H   0  0  0  0  0  0  0  0  0  0  0  0
  129.4295  128.4841  125.9668 H   0  0  0  0  0  0  0  0  0  0  0  0
  128.1510  127.2223  125.9668 H   0  0  0  0  0  0  0  0  0  0  0  0
  130.5730  124.5348  127.7009 H   0  0  0  0  0  0  0  0  0  0  0  0
  131.1828  122.6833  126.1499 H   0  0  0  0  0  0  0  0  0  0  0  0
  132.2307  123.1863  123.9494 H   0  0  0  0  0  0  0  0  0  0  0  0
  132.0787  126.0053  122.2378 H   0  0  0  0  0  0  0  0  0  0  0  0
  133.6555  126.3672  123.1220 H   0  0  0  0  0  0  0  0  0  0  0  0
  133.4074  123.5563  122.8586 H   0  0  0  0  0  0  0  0  0  0  0  0
  133.0995  124.3627  121.2317 H   0  0  0  0  0  0  0  0  0  0  0  0
  135.4030  123.6500  121.9140 H   0  0  0  0  0  0  0  0  0  0  0  0
  135.3410  124.8452  124.0989 H   0  0  0  0  0  0  0  0  0  0  0  0
  136.8433  124.8892  123.1151 H   0  0  0  0  0  0  0  0  0  0  0  0
  135.7281  126.2974  123.1151 H   0  0  0  0  0  0  0  0  0  0  0  0
  134.8824  126.2124  120.5845 H   0  0  0  0  0  0  0  0  0  0  0  0
  136.5012  125.3885  120.6529 H   0  0  0  0  0  0  0  0  0  0  0  0
  136.1487  122.6602  120.1927 H   0  0  0  0  0  0  0  0  0  0  0  0
  135.4803  121.2191  118.2729 H   0  0  0  0  0  0  0  0  0  0  0  0
  133.9899  122.1214  116.4928 H   0  0  0  0  0  0  0  0  0  0  0  0
  133.1776  124.4748  116.6180 H   0  0  0  0  0  0  0  0  0  0  0  0
  133.8412  125.9245  118.5332 H   0  0  0  0  0  0  0  0  0  0  0  0
  132.0083  127.4188  124.8114 H   0  0  0  0  0  0  0  0  0  0  0  0
  1  2  1  0
  2  3  1  0
  3  4  2  0
  3  5  1  0
  5  6  1  0
  6  7  2  0
  7  8  1  0
  8  9  2  0
  9 10  1  0
 10 11  1  0
 11 12  1  0
 12 13  1  0
 12 14  1  0
 14 15  1  0
 15 16  2  0
 16 17  1  0
 17 18  2  0
 18 19  1  0
 19 20  2  0
  9 21  1  0
 21  5  2  0
 20 15  1  0
  1 22  1  0
  1 23  1  0
  1 24  1  0
  6 25  1  0
  7 26  1  0
  8 27  1  0
 10 28  1  0
 10 29  1  0
 11 30  1  0
 11 31  1  0
 12 32  1  6
 13 33  1  0
 13 34  1  0
 13 35  1  0
 14 36  1  0
 14 37  1  0
 16 38  1  0
 17 39  1  0
 18 40  1  0
 19 41  1  0
 20 42  1  0
 21 43  1  0
M  CHG  1  12   1
M  END
>  <meeko>  (20) 
{"is_sidechain": [false], "free_energy": -5.996, "intermolecular_energy": -10.333, "internal_energy": -0.59}

$$$$
