seed-5301
     RDKit          3D

 42 43  0  0  0  0  0  0  0  0999 V2000
  134.1670  124.7170  118.0690 C   0  0  0  0  0  0  0  0  0  0  0  0
  134.5240  124.9200  119.4360 O   0  0  0  0  0  0  0  0  0  0  0  0
  135.2950  123.9320  119.9560 C   0  0  0  0  0  0  0  0  0  0  0  0
  135.6590  122.9270  119.3660 O   0  0  0  0  0  0  0  0  0  0  0  0
  135.6540  124.2320  121.3700 C   0  0  0  0  0  0  0  0  0  0  0  0
  135.8130  125.5400  121.8430 C   0  0  0  0  0  0  0  0  0  0  0  0
  136.1460  125.7650  123.1800 C   0  0  0  0  0  0  0  0  0  0  0  0
  136.3230  124.6860  124.0480 C   0  0  0  0  0  0  0  0  0  0  0  0
  136.1740  123.3700  123.5910 C   0  0  0  0  0  0  0  0  0  0  0  0
  136.3520  122.2030  124.5360 C   0  0  0  0  0  0  0  0  0  0  0  0
  135.0310  121.4930  124.8930 C   0  0  0  0  0  0  0  0  0  0  0  0
  134.2280  122.1800  125.9260 N   0  0  0  0  0  0  0  0  0  0  0  0
  134.2400  121.4400  127.1910 C   0  0  0  0  0  0  0  0  0  0  0  0
  132.8470  122.3760  125.4460 C   0  0  0  0  0  0  0  0  0  0  0  0
  132.6670  123.6420  124.6340 C   0  0  0  0  0  0  0  0  0  0  0  0
  132.3550  123.5790  123.2690 C   0  0  0  0  0  0  0  0  0  0  0  0
  132.2070  124.7500  122.5220 C   0  0  0  0  0  0  0  0  0  0  0  0
  132.3730  125.9940  123.1310 C   0  0  0  0  0  0  0  0  0  0  0  0
  132.6880  126.0690  124.4860 C   0  0  0  0  0  0  0  0  0  0  0  0
  132.8360  124.9000  125.2340 C   0  0  0  0  0  0  0  0  0  0  0  0
  135.8350  123.1530  122.2480 C   0  0  0  0  0  0  0  0  0  0  0  0
  133.2119  124.1739  118.0162 H   0  0  0  0  0  0  0  0  0  0  0  0
  134.0631  125.6911  117.5686 H   0  0  0  0  0  0  0  0  0  0  0  0
  134.9510  124.1296  117.5686 H   0  0  0  0  0  0  0  0  0  0  0  0
  135.6754  126.3915  121.1604 H   0  0  0  0  0  0  0  0  0  0  0  0
  136.2690  126.7936  123.5499 H   0  0  0  0  0  0  0  0  0  0  0  0
  136.5820  124.8709  125.1010 H   0  0  0  0  0  0  0  0  0  0  0  0
  137.0236  121.4714  124.0630 H   0  0  0  0  0  0  0  0  0  0  0  0
  136.7660  122.6054  125.4723 H   0  0  0  0  0  0  0  0  0  0  0  0
  134.4235  121.4171  123.9792 H   0  0  0  0  0  0  0  0  0  0  0  0
  135.3045  120.5122  125.3091 H   0  0  0  0  0  0  0  0  0  0  0  0
  134.2285  122.1499  128.0312 H   0  0  0  0  0  0  0  0  0  0  0  0
  133.3522  120.7928  127.2456 H   0  0  0  0  0  0  0  0  0  0  0  0
  135.1483  120.8219  127.2456 H   0  0  0  0  0  0  0  0  0  0  0  0
  132.5708  121.5164  124.8177 H   0  0  0  0  0  0  0  0  0  0  0  0
  132.2039  122.4652  126.3339 H   0  0  0  0  0  0  0  0  0  0  0  0
  132.2258  122.6008  122.7827 H   0  0  0  0  0  0  0  0  0  0  0  0
  131.9592  124.6911  121.4519 H   0  0  0  0  0  0  0  0  0  0  0  0
  132.2552  126.9153  122.5416 H   0  0  0  0  0  0  0  0  0  0  0  0
  132.8201  127.0497  124.9664 H   0  0  0  0  0  0  0  0  0  0  0  0
  133.0872  124.9649  126.3030 H   0  0  0  0  0  0  0  0  0  0  0  0
  135.7095  122.1246  121.8784 H   0  0  0  0  0  0  0  0  0  0  0  0
  1  2  1  0
  2  3  1  0
  3  4  2  0
  3  5  1  0
  5  6  1  0
  6  7  2  0
  7  8  1  0
  8  9  2  0
  9 10  1  0
 10 11  1  0
 11 12  1  0
 12 13  1  0
 12 14  1  0
 14 15  1  0
 15 16  2  0
 16 17  1  0
 17 18  2  0
 18 19  1  0
 19 20  2  0
  9 21  1  0
 21  5  2  0
 20 15  1  0
  1 22  1  0
  1 23  1  0
  1 24  1  0
  6 25  1  0
  7 26  1  0
  8 27  1  0
 10 28  1  0
 10 29  1  0
 11 30  1  0
 11 31  1  0
 13 32  1  0
 13 33  1  0
 13 34  1  0
 14 35  1  0
 14 36  1  0
 16 37  1  0
 17 38  1  0
 18 39  1  0
 19 40  1  0
 20 41  1  0
 21 42  1  0
M  END
>  <meeko>  (1) 
{"is_sidechain": [false], "free_energy": -7.301, "intermolecular_energy": -10.289, "internal_energy": -2.534}

$$$$
seed-5301
     RDKit          3D

 42 43  0  0  0  0  0  0  0  0999 V2000
  129.7970  127.4340  128.3240 C   0  0  0  0  0  0  0  0  0  0  0  0
  130.3050  126.2820  127.6530 O   0  0  0  0  0  0  0  0  0  0  0  0
  131.3150  126.5500  126.7860 C   0  0  0  0  0  0  0  0  0  0  0  0
  131.9600  127.5860  126.7430 O   0  0  0  0  0  0  0  0  0  0  0  0
  131.5460  125.3980  125.8720 C   0  0  0  0  0  0  0  0  0  0  0  0
  131.3150  124.0730  126.2610 C   0  0  0  0  0  0  0  0  0  0  0  0
  131.5440  123.0300  125.3620 C   0  0  0  0  0  0  0  0  0  0  0  0
  132.0060  123.3050  124.0740 C   0  0  0  0  0  0  0  0  0  0  0  0
  132.2470  124.6240  123.6680 C   0  0  0  0  0  0  0  0  0  0  0  0
  132.7330  124.9210  122.2670 C   0  0  0  0  0  0  0  0  0  0  0  0
  134.1690  124.4300  121.9980 C   0  0  0  0  0  0  0  0  0  0  0  0
  135.1850  124.9830  122.9180 N   0  0  0  0  0  0  0  0  0  0  0  0
  135.9190  126.0920  122.2990 C   0  0  0  0  0  0  0  0  0  0  0  0
  136.1120  123.9190  123.3470 C   0  0  0  0  0  0  0  0  0  0  0  0
  135.6230  123.1510  124.5590 C   0  0  0  0  0  0  0  0  0  0  0  0
  135.3880  121.7710  124.4860 C   0  0  0  0  0  0  0  0  0  0  0  0
  134.9220  121.0720  125.6020 C   0  0  0  0  0  0  0  0  0  0  0  0
  134.6840  121.7470  126.7990 C   0  0  0  0  0  0  0  0  0  0  0  0
  134.9090  123.1190  126.8830 C   0  0  0  0  0  0  0  0  0  0  0  0
  135.3750  123.8180  125.7680 C   0  0  0  0  0  0  0  0  0  0  0  0
  132.0100  125.6660  124.5750 C   0  0  0  0  0  0  0  0  0  0  0  0
  129.8632  127.2838  129.4117 H   0  0  0  0  0  0  0  0  0  0  0  0
  130.3898  128.3156  128.0388 H   0  0  0  0  0  0  0  0  0  0  0  0
  128.7462  127.5908  128.0388 H   0  0  0  0  0  0  0  0  0  0  0  0
  130.9527  123.8537  127.2762 H   0  0  0  0  0  0  0  0  0  0  0  0
  131.3601  121.9899  125.6691 H   0  0  0  0  0  0  0  0  0  0  0  0
  132.1826  122.4779  123.3707 H   0  0  0  0  0  0  0  0  0  0  0  0
  132.0570  124.4289  121.5522 H   0  0  0  0  0  0  0  0  0  0  0  0
  132.7377  126.0149  122.1510 H   0  0  0  0  0  0  0  0  0  0  0  0
  134.1810  123.3340  122.0906 H   0  0  0  0  0  0  0  0  0  0  0  0
  134.4362  124.7776  120.9892 H   0  0  0  0  0  0  0  0  0  0  0  0
  136.3440  126.7341  123.0845 H   0  0  0  0  0  0  0  0  0  0  0  0
  136.7307  125.6910  121.6742 H   0  0  0  0  0  0  0  0  0  0  0  0
  135.2328  126.6825  121.6742 H   0  0  0  0  0  0  0  0  0  0  0  0
  136.2414  123.2119  122.5144 H   0  0  0  0  0  0  0  0  0  0  0  0
  137.0579  124.4048  123.6287 H   0  0  0  0  0  0  0  0  0  0  0  0
  135.5718  121.2348  123.5433 H   0  0  0  0  0  0  0  0  0  0  0  0
  134.7427  119.9887  125.5367 H   0  0  0  0  0  0  0  0  0  0  0  0
  134.3183  121.1953  127.6776 H   0  0  0  0  0  0  0  0  0  0  0  0
  134.7197  123.6512  127.8269 H   0  0  0  0  0  0  0  0  0  0  0  0
  135.5493  124.9018  125.8381 H   0  0  0  0  0  0  0  0  0  0  0  0
  132.1899  126.7064  124.2664 H   0  0  0  0  0  0  0  0  0  0  0  0
  1  2  1  0
  2  3  1  0
  3  4  2  0
  3  5  1  0
  5  6  1  0
  6  7  2  0
  7  8  1  0
  8  9  2  0
  9 10  1  0
 10 11  1  0
 11 12  1  0
 12 13  1  0
 12 14  1  0
 14 15  1  0
 15 16  2  0
 16 17  1  0
 17 18  2  0
 18 19  1  0
 19 20  2  0
  9 21  1  0
 21  5  2  0
 20 15  1  0
  1 22  1  0
  1 23  1  0
  1 24  1  0
  6 25  1  0
  7 26  1  0
  8 27  1  0
 10 28  1  0
 10 29  1  0
 11 30  1  0
 11 31  1  0
 13 32  1  0
 13 33  1  0
 13 34  1  0
 14 35  1  0
 14 36  1  0
 16 37  1  0
 17 38  1  0
 18 39  1  0
 19 40  1  0
 20 41  1  0
 21 42  1  0
M  END
>  <meeko>  (2) 
{"is_sidechain": [false], "free_energy": -7.28, "intermolecular_energy": -10.548, "internal_energy": -2.245}

$$$$
seed-5301
     RDKit          3D

 42 43  0  0  0  0  0  0  0  0999 V2000
  134.5700  122.6730  116.7250 C   0  0  0  0  0  0  0  0  0  0  0  0
  135.3340  123.2070  117.8070 O   0  0  0  0  0  0  0  0  0  0  0  0
  134.7700  124.2890  118.3980 C   0  0  0  0  0  0  0  0  0  0  0  0
  134.2490  125.2290  117.8160 O   0  0  0  0  0  0  0  0  0  0  0  0
  134.8630  124.1890  119.8810 C   0  0  0  0  0  0  0  0  0  0  0  0
  135.7280  123.2940  120.5200 C   0  0  0  0  0  0  0  0  0  0  0  0
  135.7790  123.2450  121.9140 C   0  0  0  0  0  0  0  0  0  0  0  0
  134.9660  124.0860  122.6740 C   0  0  0  0  0  0  0  0  0  0  0  0
  134.0890  124.9860  122.0530 C   0  0  0  0  0  0  0  0  0  0  0  0
  133.2200  125.9060  122.8780 C   0  0  0  0  0  0  0  0  0  0  0  0
  133.4390  125.7620  124.3970 C   0  0  0  0  0  0  0  0  0  0  0  0
  132.3620  125.0370  125.1020 N   0  0  0  0  0  0  0  0  0  0  0  0
  131.2360  125.9240  125.4140 C   0  0  0  0  0  0  0  0  0  0  0  0
  132.8910  124.4120  126.3300 C   0  0  0  0  0  0  0  0  0  0  0  0
  133.8580  123.2780  126.0570 C   0  0  0  0  0  0  0  0  0  0  0  0
  135.2250  123.4190  126.3340 C   0  0  0  0  0  0  0  0  0  0  0  0
  136.1130  122.3750  126.0650 C   0  0  0  0  0  0  0  0  0  0  0  0
  135.6440  121.1840  125.5140 C   0  0  0  0  0  0  0  0  0  0  0  0
  134.2880  121.0330  125.2290 C   0  0  0  0  0  0  0  0  0  0  0  0
  133.3990  122.0750  125.4980 C   0  0  0  0  0  0  0  0  0  0  0  0
  134.0480  125.0320  120.6520 C   0  0  0  0  0  0  0  0  0  0  0  0
  133.7298  122.0858  117.1241 H   0  0  0  0  0  0  0  0  0  0  0  0
  134.1813  123.4971  116.1088 H   0  0  0  0  0  0  0  0  0  0  0  0
  135.2104  122.0248  116.1088 H   0  0  0  0  0  0  0  0  0  0  0  0
  136.3686  122.6282  119.9231 H   0  0  0  0  0  0  0  0  0  0  0  0
  136.4615  122.5420  122.4141 H   0  0  0  0  0  0  0  0  0  0  0  0
  135.0136  124.0424  123.7721 H   0  0  0  0  0  0  0  0  0  0  0  0
  133.4422  126.9445  122.5913 H   0  0  0  0  0  0  0  0  0  0  0  0
  132.1744  125.6312  122.6748 H   0  0  0  0  0  0  0  0  0  0  0  0
  134.3822  125.2197  124.5589 H   0  0  0  0  0  0  0  0  0  0  0  0
  133.4546  126.7813  124.8103 H   0  0  0  0  0  0  0  0  0  0  0  0
  131.1278  126.0092  126.5053 H   0  0  0  0  0  0  0  0  0  0  0  0
  131.4237  126.9195  124.9853 H   0  0  0  0  0  0  0  0  0  0  0  0
  130.3121  125.5084  124.9853 H   0  0  0  0  0  0  0  0  0  0  0  0
  133.4130  125.1823  126.9167 H   0  0  0  0  0  0  0  0  0  0  0  0
  132.0347  123.9861  126.8735 H   0  0  0  0  0  0  0  0  0  0  0  0
  135.6008  124.3582  126.7661 H   0  0  0  0  0  0  0  0  0  0  0  0
  137.1836  122.4930  126.2883 H   0  0  0  0  0  0  0  0  0  0  0  0
  136.3445  120.3624  125.3038 H   0  0  0  0  0  0  0  0  0  0  0  0
  133.9187  120.0933  124.7924 H   0  0  0  0  0  0  0  0  0  0  0  0
  132.3299  121.9524  125.2700 H   0  0  0  0  0  0  0  0  0  0  0  0
  133.3687  125.7375  120.1513 H   0  0  0  0  0  0  0  0  0  0  0  0
  1  2  1  0
  2  3  1  0
  3  4  2  0
  3  5  1  0
  5  6  1  0
  6  7  2  0
  7  8  1  0
  8  9  2  0
  9 10  1  0
 10 11  1  0
 11 12  1  0
 12 13  1  0
 12 14  1  0
 14 15  1  0
 15 16  2  0
 16 17  1  0
 17 18  2  0
 18 19  1  0
 19 20  2  0
  9 21  1  0
 21  5  2  0
 20 15  1  0
  1 22  1  0
  1 23  1  0
  1 24  1  0
  6 25  1  0
  7 26  1  0
  8 27  1  0
 10 28  1  0
 10 29  1  0
 11 30  1  0
 11 31  1  0
 13 32  1  0
 13 33  1  0
 13 34  1  0
 14 35  1  0
 14 36  1  0
 16 37  1  0
 17 38  1  0
 18 39  1  0
 19 40  1  0
 20 41  1  0
 21 42  1  0
M  END
>  <meeko>  (3) 
{"is_sidechain": [false], "free_energy": -7.026, "intermolecular_energy": -11.149, "internal_energy": -1.285}

$$$$
seed-5301
     RDKit          3D

 42 43  0  0  0  0  0  0  0  0999 V2000
  136.9030  121.0730  126.7640 C   0  0  0  0  0  0  0  0  0  0  0  0
  135.8860  120.8940  125.7770 O   0  0  0  0  0  0  0  0  0  0  0  0
  135.8030  121.9100  124.8820 C   0  0  0  0  0  0  0  0  0  0  0  0
  136.7320  122.3700  124.2360 O   0  0  0  0  0  0  0  0  0  0  0  0
  134.4040  122.4100  124.7810 C   0  0  0  0  0  0  0  0  0  0  0  0
  133.3890  121.9810  125.6440 C   0  0  0  0  0  0  0  0  0  0  0  0
  132.0940  122.4860  125.5070 C   0  0  0  0  0  0  0  0  0  0  0  0
  131.8080  123.4180  124.5080 C   0  0  0  0  0  0  0  0  0  0  0  0
  132.8100  123.8560  123.6320 C   0  0  0  0  0  0  0  0  0  0  0  0
  132.5020  124.8770  122.5600 C   0  0  0  0  0  0  0  0  0  0  0  0
  133.5760  125.9740  122.4300 C   0  0  0  0  0  0  0  0  0  0  0  0
  134.7700  125.5710  121.6580 N   0  0  0  0  0  0  0  0  0  0  0  0
  135.9640  126.2970  122.1040 C   0  0  0  0  0  0  0  0  0  0  0  0
  134.5370  125.7820  120.2170 C   0  0  0  0  0  0  0  0  0  0  0  0
  134.6640  124.5140  119.3970 C   0  0  0  0  0  0  0  0  0  0  0  0
  134.1680  124.4550  118.0880 C   0  0  0  0  0  0  0  0  0  0  0  0
  134.2740  123.2770  117.3430 C   0  0  0  0  0  0  0  0  0  0  0  0
  134.8740  122.1490  117.9020 C   0  0  0  0  0  0  0  0  0  0  0  0
  135.3670  122.1940  119.2030 C   0  0  0  0  0  0  0  0  0  0  0  0
  135.2620  123.3700  119.9490 C   0  0  0  0  0  0  0  0  0  0  0  0
  134.1080  123.3480  123.7790 C   0  0  0  0  0  0  0  0  0  0  0  0
  136.4583  120.9947  127.7671 H   0  0  0  0  0  0  0  0  0  0  0  0
  137.6726  120.2965  126.6425 H   0  0  0  0  0  0  0  0  0  0  0  0
  137.3612  122.0656  126.6425 H   0  0  0  0  0  0  0  0  0  0  0  0
  133.6114  121.2453  126.4310 H   0  0  0  0  0  0  0  0  0  0  0  0
  131.2982  122.1487  126.1874 H   0  0  0  0  0  0  0  0  0  0  0  0
  130.7861  123.8124  124.4075 H   0  0  0  0  0  0  0  0  0  0  0  0
  132.4189  124.3549  121.5954 H   0  0  0  0  0  0  0  0  0  0  0  0
  131.5639  125.3747  122.8469 H   0  0  0  0  0  0  0  0  0  0  0  0
  133.1215  126.8431  121.9319 H   0  0  0  0  0  0  0  0  0  0  0  0
  133.9222  126.1968  123.4500 H   0  0  0  0  0  0  0  0  0  0  0  0
  135.9930  126.3146  123.2035 H   0  0  0  0  0  0  0  0  0  0  0  0
  136.8638  125.7930  121.7215 H   0  0  0  0  0  0  0  0  0  0  0  0
  135.9306  127.3278  121.7215 H   0  0  0  0  0  0  0  0  0  0  0  0
  133.5221  126.1844  120.0827 H   0  0  0  0  0  0  0  0  0  0  0  0
  135.3099  126.4790  119.8608 H   0  0  0  0  0  0  0  0  0  0  0  0
  133.6920  125.3415  117.6436 H   0  0  0  0  0  0  0  0  0  0  0  0
  133.8839  123.2397  116.3152 H   0  0  0  0  0  0  0  0  0  0  0  0
  134.9577  121.2229  117.3143 H   0  0  0  0  0  0  0  0  0  0  0  0
  135.8392  121.3035  119.6434 H   0  0  0  0  0  0  0  0  0  0  0  0
  135.6510  123.4002  120.9775 H   0  0  0  0  0  0  0  0  0  0  0  0
  134.9046  123.6883  123.1010 H   0  0  0  0  0  0  0  0  0  0  0  0
  1  2  1  0
  2  3  1  0
  3  4  2  0
  3  5  1  0
  5  6  1  0
  6  7  2  0
  7  8  1  0
  8  9  2  0
  9 10  1  0
 10 11  1  0
 11 12  1  0
 12 13  1  0
 12 14  1  0
 14 15  1  0
 15 16  2  0
 16 17  1  0
 17 18  2  0
 18 19  1  0
 19 20  2  0
  9 21  1  0
 21  5  2  0
 20 15  1  0
  1 22  1  0
  1 23  1  0
  1 24  1  0
  6 25  1  0
  7 26  1  0
  8 27  1  0
 10 28  1  0
 10 29  1  0
 11 30  1  0
 11 31  1  0
 13 32  1  0
 13 33  1  0
 13 34  1  0
 14 35  1  0
 14 36  1  0
 16 37  1  0
 17 38  1  0
 18 39  1  0
 19 40  1  0
 20 41  1  0
 21 42  1  0
M  END
>  <meeko>  (4) 
{"is_sidechain": [false], "free_energy": -6.724, "intermolecular_energy": -11.3, "internal_energy": -0.709}

$$$$
seed-5301
     RDKit          3D

 42 43  0  0  0  0  0  0  0  0999 V2000
  129.2480  124.2810  127.7260 C   0  0  0  0  0  0  0  0  0  0  0  0
  130.1550  123.2670  127.2920 O   0  0  0  0  0  0  0  0  0  0  0  0
  130.9010  123.6200  126.2150 C   0  0  0  0  0  0  0  0  0  0  0  0
  130.5220  124.3080  125.2800 O   0  0  0  0  0  0  0  0  0  0  0  0
  132.2740  123.0530  126.3160 C   0  0  0  0  0  0  0  0  0  0  0  0
  132.5110  121.7160  126.6570 C   0  0  0  0  0  0  0  0  0  0  0  0
  133.8190  121.2340  126.7330 C   0  0  0  0  0  0  0  0  0  0  0  0
  134.8950  122.0850  126.4720 C   0  0  0  0  0  0  0  0  0  0  0  0
  134.6780  123.4270  126.1340 C   0  0  0  0  0  0  0  0  0  0  0  0
  135.8430  124.3430  125.8370 C   0  0  0  0  0  0  0  0  0  0  0  0
  136.3540  124.2370  124.3870 C   0  0  0  0  0  0  0  0  0  0  0  0
  135.9500  125.3580  123.5130 N   0  0  0  0  0  0  0  0  0  0  0  0
  135.8730  126.6170  124.2610 C   0  0  0  0  0  0  0  0  0  0  0  0
  134.6590  125.0550  122.8660 C   0  0  0  0  0  0  0  0  0  0  0  0
  134.8000  124.6080  121.4250 C   0  0  0  0  0  0  0  0  0  0  0  0
  135.3750  123.3680  121.1130 C   0  0  0  0  0  0  0  0  0  0  0  0
  135.5170  122.9690  119.7810 C   0  0  0  0  0  0  0  0  0  0  0  0
  135.0900  123.8070  118.7520 C   0  0  0  0  0  0  0  0  0  0  0  0
  134.5220  125.0440  119.0490 C   0  0  0  0  0  0  0  0  0  0  0  0
  134.3790  125.4430  120.3790 C   0  0  0  0  0  0  0  0  0  0  0  0
  133.3610  123.9020  126.0550 C   0  0  0  0  0  0  0  0  0  0  0  0
  129.2252  124.3064  128.8255 H   0  0  0  0  0  0  0  0  0  0  0  0
  129.5795  125.2576  127.3434 H   0  0  0  0  0  0  0  0  0  0  0  0
  128.2406  124.0600  127.3434 H   0  0  0  0  0  0  0  0  0  0  0  0
  131.6652  121.0442  126.8654 H   0  0  0  0  0  0  0  0  0  0  0  0
  134.0023  120.1825  126.9988 H   0  0  0  0  0  0  0  0  0  0  0  0
  135.9228  121.6978  126.5324 H   0  0  0  0  0  0  0  0  0  0  0  0
  135.5257  125.3803  126.0194 H   0  0  0  0  0  0  0  0  0  0  0  0
  136.6703  124.0381  126.4948 H   0  0  0  0  0  0  0  0  0  0  0  0
  137.4531  124.1990  124.4116 H   0  0  0  0  0  0  0  0  0  0  0  0
  135.9025  123.3289  123.9610 H   0  0  0  0  0  0  0  0  0  0  0  0
  135.8860  126.4038  125.3401 H   0  0  0  0  0  0  0  0  0  0  0  0
  136.7341  127.2506  124.0020 H   0  0  0  0  0  0  0  0  0  0  0  0
  134.9411  127.1410  124.0020 H   0  0  0  0  0  0  0  0  0  0  0  0
  134.1641  124.2530  123.4333 H   0  0  0  0  0  0  0  0  0  0  0  0
  134.0708  125.9845  122.8623 H   0  0  0  0  0  0  0  0  0  0  0  0
  135.7165  122.7050  121.9215 H   0  0  0  0  0  0  0  0  0  0  0  0
  135.9660  121.9931  119.5445 H   0  0  0  0  0  0  0  0  0  0  0  0
  135.2017  123.4912  117.7043 H   0  0  0  0  0  0  0  0  0  0  0  0
  134.1867  125.7054  118.2365 H   0  0  0  0  0  0  0  0  0  0  0  0
  133.9320  126.4214  120.6092 H   0  0  0  0  0  0  0  0  0  0  0  0
  133.1775  124.9525  125.7853 H   0  0  0  0  0  0  0  0  0  0  0  0
  1  2  1  0
  2  3  1  0
  3  4  2  0
  3  5  1  0
  5  6  1  0
  6  7  2  0
  7  8  1  0
  8  9  2  0
  9 10  1  0
 10 11  1  0
 11 12  1  0
 12 13  1  0
 12 14  1  0
 14 15  1  0
 15 16  2  0
 16 17  1  0
 17 18  2  0
 18 19  1  0
 19 20  2  0
  9 21  1  0
 21  5  2  0
 20 15  1  0
  1 22  1  0
  1 23  1  0
  1 24  1  0
  6 25  1  0
  7 26  1  0
  8 27  1  0
 10 28  1  0
 10 29  1  0
 11 30  1  0
 11 31  1  0
 13 32  1  0
 13 33  1  0
 13 34  1  0
 14 35  1  0
 14 36  1  0
 16 37  1  0
 17 38  1  0
 18 39  1  0
 19 40  1  0
 20 41  1  0
 21 42  1  0
M  END
>  <meeko>  (5) 
{"is_sidechain": [false], "free_energy": -6.699, "intermolecular_energy": -11.362, "internal_energy": -0.613}

$$$$
seed-5301
     RDKit          3D

 42 43  0  0  0  0  0  0  0  0999 V2000
  134.9560  122.9190  116.9110 C   0  0  0  0  0  0  0  0  0  0  0  0
  135.0310  123.2100  118.3070 O   0  0  0  0  0  0  0  0  0  0  0  0
  134.6150  124.4600  118.6320 C   0  0  0  0  0  0  0  0  0  0  0  0
  134.3070  125.3370  117.8400 O   0  0  0  0  0  0  0  0  0  0  0  0
  134.5760  124.6350  120.1100 C   0  0  0  0  0  0  0  0  0  0  0  0
  133.9050  125.7000  120.7230 C   0  0  0  0  0  0  0  0  0  0  0  0
  133.8970  125.8140  122.1140 C   0  0  0  0  0  0  0  0  0  0  0  0
  134.5600  124.8680  122.8980 C   0  0  0  0  0  0  0  0  0  0  0  0
  135.2410  123.7990  122.3030 C   0  0  0  0  0  0  0  0  0  0  0  0
  135.9470  122.7670  123.1540 C   0  0  0  0  0  0  0  0  0  0  0  0
  135.0010  122.0010  124.1000 C   0  0  0  0  0  0  0  0  0  0  0  0
  134.7670  122.6650  125.3990 N   0  0  0  0  0  0  0  0  0  0  0  0
  135.8990  122.4680  126.3110 C   0  0  0  0  0  0  0  0  0  0  0  0
  133.5160  122.1690  126.0040 C   0  0  0  0  0  0  0  0  0  0  0  0
  132.5130  123.2670  126.2930 C   0  0  0  0  0  0  0  0  0  0  0  0
  132.8560  124.6150  126.1210 C   0  0  0  0  0  0  0  0  0  0  0  0
  131.9320  125.6220  126.4050 C   0  0  0  0  0  0  0  0  0  0  0  0
  130.6580  125.2920  126.8660 C   0  0  0  0  0  0  0  0  0  0  0  0
  130.3060  123.9560  127.0450 C   0  0  0  0  0  0  0  0  0  0  0  0
  131.2280  122.9480  126.7610 C   0  0  0  0  0  0  0  0  0  0  0  0
  135.2410  123.6880  120.9050 C   0  0  0  0  0  0  0  0  0  0  0  0
  134.6837  121.8625  116.7708 H   0  0  0  0  0  0  0  0  0  0  0  0
  134.1936  123.5594  116.4434 H   0  0  0  0  0  0  0  0  0  0  0  0
  135.9330  123.1110  116.4434 H   0  0  0  0  0  0  0  0  0  0  0  0
  133.3835  126.4478  120.1075 H   0  0  0  0  0  0  0  0  0  0  0  0
  133.3675  126.6506  122.5934 H   0  0  0  0  0  0  0  0  0  0  0  0
  134.5472  124.9634  123.9938 H   0  0  0  0  0  0  0  0  0  0  0  0
  136.4361  122.0413  122.4875 H   0  0  0  0  0  0  0  0  0  0  0  0
  136.6695  123.3060  123.7845 H   0  0  0  0  0  0  0  0  0  0  0  0
  134.0312  121.8824  123.5947 H   0  0  0  0  0  0  0  0  0  0  0  0
  135.4894  121.0407  124.3220 H   0  0  0  0  0  0  0  0  0  0  0  0
  135.5467  122.5293  127.3513 H   0  0  0  0  0  0  0  0  0  0  0  0
  136.3456  121.4786  126.1328 H   0  0  0  0  0  0  0  0  0  0  0  0
  136.6535  123.2483  126.1328 H   0  0  0  0  0  0  0  0  0  0  0  0
  133.0553  121.4487  125.3120 H   0  0  0  0  0  0  0  0  0  0  0  0
  133.7806  121.7080  126.9671 H   0  0  0  0  0  0  0  0  0  0  0  0
  133.8603  124.8813  125.7597 H   0  0  0  0  0  0  0  0  0  0  0  0
  132.2092  126.6772  126.2650 H   0  0  0  0  0  0  0  0  0  0  0  0
  129.9308  126.0868  127.0884 H   0  0  0  0  0  0  0  0  0  0  0  0
  129.3015  123.6959  127.4101 H   0  0  0  0  0  0  0  0  0  0  0  0
  130.9459  121.8946  126.9049 H   0  0  0  0  0  0  0  0  0  0  0  0
  135.7679  122.8496  120.4260 H   0  0  0  0  0  0  0  0  0  0  0  0
  1  2  1  0
  2  3  1  0
  3  4  2  0
  3  5  1  0
  5  6  1  0
  6  7  2  0
  7  8  1  0
  8  9  2  0
  9 10  1  0
 10 11  1  0
 11 12  1  0
 12 13  1  0
 12 14  1  0
 14 15  1  0
 15 16  2  0
 16 17  1  0
 17 18  2  0
 18 19  1  0
 19 20  2  0
  9 21  1  0
 21  5  2  0
 20 15  1  0
  1 22  1  0
  1 23  1  0
  1 24  1  0
  6 25  1  0
  7 26  1  0
  8 27  1  0
 10 28  1  0
 10 29  1  0
 11 30  1  0
 11 31  1  0
 13 32  1  0
 13 33  1  0
 13 34  1  0
 14 35  1  0
 14 36  1  0
 16 37  1  0
 17 38  1  0
 18 39  1  0
 19 40  1  0
 20 41  1  0
 21 42  1  0
M  END
>  <meeko>  (6) 
{"is_sidechain": [false], "free_energy": -6.676, "intermolecular_energy": -11.219, "internal_energy": -0.723}

$$$$
seed-5301
     RDKit          3D

 42 43  0  0  0  0  0  0  0  0999 V2000
  131.8590  128.9580  128.9820 C   0  0  0  0  0  0  0  0  0  0  0  0
  130.7640  128.0430  129.0280 O   0  0  0  0  0  0  0  0  0  0  0  0
  130.2150  127.7800  127.8150 C   0  0  0  0  0  0  0  0  0  0  0  0
  129.6140  128.5810  127.1160 O   0  0  0  0  0  0  0  0  0  0  0  0
  130.4420  126.3600  127.4300 C   0  0  0  0  0  0  0  0  0  0  0  0
  129.5330  125.3430  127.7430 C   0  0  0  0  0  0  0  0  0  0  0  0
  129.7930  124.0280  127.3530 C   0  0  0  0  0  0  0  0  0  0  0  0
  130.9610  123.7230  126.6540 C   0  0  0  0  0  0  0  0  0  0  0  0
  131.8860  124.7260  126.3360 C   0  0  0  0  0  0  0  0  0  0  0  0
  133.1440  124.3960  125.5650 C   0  0  0  0  0  0  0  0  0  0  0  0
  134.1250  123.4980  126.3450 C   0  0  0  0  0  0  0  0  0  0  0  0
  135.0690  122.7440  125.4950 N   0  0  0  0  0  0  0  0  0  0  0  0
  135.5230  121.5180  126.1590 C   0  0  0  0  0  0  0  0  0  0  0  0
  136.2150  123.5970  125.1300 C   0  0  0  0  0  0  0  0  0  0  0  0
  136.1890  124.0530  123.6860 C   0  0  0  0  0  0  0  0  0  0  0  0
  136.2990  125.4120  123.3610 C   0  0  0  0  0  0  0  0  0  0  0  0
  136.2570  125.8270  122.0280 C   0  0  0  0  0  0  0  0  0  0  0  0
  136.1010  124.8890  121.0090 C   0  0  0  0  0  0  0  0  0  0  0  0
  135.9850  123.5360  121.3190 C   0  0  0  0  0  0  0  0  0  0  0  0
  136.0270  123.1190  122.6500 C   0  0  0  0  0  0  0  0  0  0  0  0
  131.6150  126.0450  126.7260 C   0  0  0  0  0  0  0  0  0  0  0  0
  132.1659  129.2144  130.0067 H   0  0  0  0  0  0  0  0  0  0  0  0
  132.7033  128.4931  128.4519 H   0  0  0  0  0  0  0  0  0  0  0  0
  131.5515  129.8715  128.4519 H   0  0  0  0  0  0  0  0  0  0  0  0
  128.6127  125.5800  128.2969 H   0  0  0  0  0  0  0  0  0  0  0  0
  129.0755  123.2309  127.5974 H   0  0  0  0  0  0  0  0  0  0  0  0
  131.1578  122.6845  126.3494 H   0  0  0  0  0  0  0  0  0  0  0  0
  132.8584  123.8769  124.6382 H   0  0  0  0  0  0  0  0  0  0  0  0
  133.6617  125.3464  125.3680 H   0  0  0  0  0  0  0  0  0  0  0  0
  134.7085  124.1356  127.0255 H   0  0  0  0  0  0  0  0  0  0  0  0
  133.5145  122.7519  126.8748 H   0  0  0  0  0  0  0  0  0  0  0  0
  135.4734  121.6518  127.2497 H   0  0  0  0  0  0  0  0  0  0  0  0
  134.8758  120.6793  125.8627 H   0  0  0  0  0  0  0  0  0  0  0  0
  136.5603  121.3031  125.8627 H   0  0  0  0  0  0  0  0  0  0  0  0
  136.2076  124.4867  125.7769 H   0  0  0  0  0  0  0  0  0  0  0  0
  137.1249  122.9935  125.2638 H   0  0  0  0  0  0  0  0  0  0  0  0
  136.4192  126.1569  124.1614 H   0  0  0  0  0  0  0  0  0  0  0  0
  136.3472  126.8954  121.7821 H   0  0  0  0  0  0  0  0  0  0  0  0
  136.0695  125.2173  119.9596 H   0  0  0  0  0  0  0  0  0  0  0  0
  135.8603  122.7962  120.5146 H   0  0  0  0  0  0  0  0  0  0  0  0
  135.9324  122.0496  122.8897 H   0  0  0  0  0  0  0  0  0  0  0  0
  132.3302  126.8429  126.4773 H   0  0  0  0  0  0  0  0  0  0  0  0
  1  2  1  0
  2  3  1  0
  3  4  2  0
  3  5  1  0
  5  6  1  0
  6  7  2  0
  7  8  1  0
  8  9  2  0
  9 10  1  0
 10 11  1  0
 11 12  1  0
 12 13  1  0
 12 14  1  0
 14 15  1  0
 15 16  2  0
 16 17  1  0
 17 18  2  0
 18 19  1  0
 19 20  2  0
  9 21  1  0
 21  5  2  0
 20 15  1  0
  1 22  1  0
  1 23  1  0
  1 24  1  0
  6 25  1  0
  7 26  1  0
  8 27  1  0
 10 28  1  0
 10 29  1  0
 11 30  1  0
 11 31  1  0
 13 32  1  0
 13 33  1  0
 13 34  1  0
 14 35  1  0
 14 36  1  0
 16 37  1  0
 17 38  1  0
 18 39  1  0
 19 40  1  0
 20 41  1  0
 21 42  1  0
M  END
>  <meeko>  (7) 
{"is_sidechain": [false], "free_energy": -6.516, "intermolecular_energy": -11.105, "internal_energy": -0.611}

$$$$
seed-5301
     RDKit          3D

 42 43  0  0  0  0  0  0  0  0999 V2000
  137.1010  125.3710  125.2870 C   0  0  0  0  0  0  0  0  0  0  0  0
  136.1350  124.5290  124.6570 O   0  0  0  0  0  0  0  0  0  0  0  0
  136.0640  123.2820  125.1860 C   0  0  0  0  0  0  0  0  0  0  0  0
  136.9960  122.5010  125.2990 O   0  0  0  0  0  0  0  0  0  0  0  0
  134.6750  122.9730  125.6240 C   0  0  0  0  0  0  0  0  0  0  0  0
  134.2920  121.7010  126.0660 C   0  0  0  0  0  0  0  0  0  0  0  0
  132.9760  121.4670  126.4700 C   0  0  0  0  0  0  0  0  0  0  0  0
  132.0380  122.5000  126.4320 C   0  0  0  0  0  0  0  0  0  0  0  0
  132.4010  123.7780  125.9870 C   0  0  0  0  0  0  0  0  0  0  0  0
  131.3870  124.9000  125.9600 C   0  0  0  0  0  0  0  0  0  0  0  0
  131.8350  126.1130  125.1210 C   0  0  0  0  0  0  0  0  0  0  0  0
  131.1310  127.3710  125.4430 N   0  0  0  0  0  0  0  0  0  0  0  0
  131.5100  127.8720  126.7680 C   0  0  0  0  0  0  0  0  0  0  0  0
  129.6710  127.1700  125.3580 C   0  0  0  0  0  0  0  0  0  0  0  0
  129.0380  127.8680  124.1720 C   0  0  0  0  0  0  0  0  0  0  0  0
  129.4280  129.1650  123.8110 C   0  0  0  0  0  0  0  0  0  0  0  0
  128.8280  129.8080  122.7260 C   0  0  0  0  0  0  0  0  0  0  0  0
  127.8310  129.1630  121.9950 C   0  0  0  0  0  0  0  0  0  0  0  0
  127.4310  127.8760  122.3470 C   0  0  0  0  0  0  0  0  0  0  0  0
  128.0300  127.2310  123.4310 C   0  0  0  0  0  0  0  0  0  0  0  0
  133.7260  124.0060  125.5880 C   0  0  0  0  0  0  0  0  0  0  0  0
  137.0041  125.2866  126.3795 H   0  0  0  0  0  0  0  0  0  0  0  0
  138.1117  125.0605  124.9834 H   0  0  0  0  0  0  0  0  0  0  0  0
  136.9314  126.4146  124.9834 H   0  0  0  0  0  0  0  0  0  0  0  0
  135.0288  120.8848  126.0951 H   0  0  0  0  0  0  0  0  0  0  0  0
  132.6781  120.4672  126.8187 H   0  0  0  0  0  0  0  0  0  0  0  0
  131.0039  122.3089  126.7545 H   0  0  0  0  0  0  0  0  0  0  0  0
  130.4488  124.5114  125.5371 H   0  0  0  0  0  0  0  0  0  0  0  0
  131.2640  125.2502  126.9955 H   0  0  0  0  0  0  0  0  0  0  0  0
  132.9111  126.2684  125.2882 H   0  0  0  0  0  0  0  0  0  0  0  0
  131.5934  125.8771  124.0741 H   0  0  0  0  0  0  0  0  0  0  0  0
  131.0394  127.2499  127.5436 H   0  0  0  0  0  0  0  0  0  0  0  0
  132.6037  127.8291  126.8772 H   0  0  0  0  0  0  0  0  0  0  0  0
  131.1712  128.9128  126.8772 H   0  0  0  0  0  0  0  0  0  0  0  0
  129.4713  126.0914  125.2757 H   0  0  0  0  0  0  0  0  0  0  0  0
  129.2288  127.6054  126.2663 H   0  0  0  0  0  0  0  0  0  0  0  0
  130.2118  129.6798  124.3860 H   0  0  0  0  0  0  0  0  0  0  0  0
  129.1424  130.8247  122.4477 H   0  0  0  0  0  0  0  0  0  0  0  0
  127.3603  129.6706  121.1402 H   0  0  0  0  0  0  0  0  0  0  0  0
  126.6434  127.3679  121.7712 H   0  0  0  0  0  0  0  0  0  0  0  0
  127.7094  126.2155  123.7066 H   0  0  0  0  0  0  0  0  0  0  0  0
  134.0249  125.0067  125.2426 H   0  0  0  0  0  0  0  0  0  0  0  0
  1  2  1  0
  2  3  1  0
  3  4  2  0
  3  5  1  0
  5  6  1  0
  6  7  2  0
  7  8  1  0
  8  9  2  0
  9 10  1  0
 10 11  1  0
 11 12  1  0
 12 13  1  0
 12 14  1  0
 14 15  1  0
 15 16  2  0
 16 17  1  0
 17 18  2  0
 18 19  1  0
 19 20  2  0
  9 21  1  0
 21  5  2  0
 20 15  1  0
  1 22  1  0
  1 23  1  0
  1 24  1  0
  6 25  1  0
  7 26  1  0
  8 27  1  0
 10 28  1  0
 10 29  1  0
 11 30  1  0
 11 31  1  0
 13 32  1  0
 13 33  1  0
 13 34  1  0
 14 35  1  0
 14 36  1  0
 16 37  1  0
 17 38  1  0
 18 39  1  0
 19 40  1  0
 20 41  1  0
 21 42  1  0
M  END
>  <meeko>  (8) 
{"is_sidechain": [false], "free_energy": -6.515, "intermolecular_energy": -11.183, "internal_energy": -0.532}

$$$$
seed-5301
     RDKit          3D

 42 43  0  0  0  0  0  0  0  0999 V2000
  130.9170  124.7970  126.1970 C   0  0  0  0  0  0  0  0  0  0  0  0
  132.2330  124.3430  126.5130 O   0  0  0  0  0  0  0  0  0  0  0  0
  132.3750  122.9940  126.4700 C   0  0  0  0  0  0  0  0  0  0  0  0
  131.5400  122.1770  126.8270 O   0  0  0  0  0  0  0  0  0  0  0  0
  133.7070  122.6210  125.9180 C   0  0  0  0  0  0  0  0  0  0  0  0
  134.3970  121.4760  126.3320 C   0  0  0  0  0  0  0  0  0  0  0  0
  135.6420  121.1710  125.7780 C   0  0  0  0  0  0  0  0  0  0  0  0
  136.2020  122.0080  124.8120 C   0  0  0  0  0  0  0  0  0  0  0  0
  135.5280  123.1620  124.3880 C   0  0  0  0  0  0  0  0  0  0  0  0
  136.1300  124.0590  123.3310 C   0  0  0  0  0  0  0  0  0  0  0  0
  136.1150  123.4410  121.9190 C   0  0  0  0  0  0  0  0  0  0  0  0
  136.2580  124.4210  120.8220 N   0  0  0  0  0  0  0  0  0  0  0  0
  136.5470  125.7620  121.3390 C   0  0  0  0  0  0  0  0  0  0  0  0
  135.0400  124.4320  119.9900 C   0  0  0  0  0  0  0  0  0  0  0  0
  135.0190  123.3400  118.9400 C   0  0  0  0  0  0  0  0  0  0  0  0
  134.7190  123.6360  117.6040 C   0  0  0  0  0  0  0  0  0  0  0  0
  134.6860  122.6210  116.6450 C   0  0  0  0  0  0  0  0  0  0  0  0
  134.9490  121.3020  117.0130 C   0  0  0  0  0  0  0  0  0  0  0  0
  135.2450  120.9950  118.3390 C   0  0  0  0  0  0  0  0  0  0  0  0
  135.2790  122.0070  119.2990 C   0  0  0  0  0  0  0  0  0  0  0  0
  134.2760  123.4580  124.9460 C   0  0  0  0  0  0  0  0  0  0  0  0
  130.3620  124.9885  127.1272 H   0  0  0  0  0  0  0  0  0  0  0  0
  130.9804  125.7252  125.6102 H   0  0  0  0  0  0  0  0  0  0  0  0
  130.3946  124.0271  125.6102 H   0  0  0  0  0  0  0  0  0  0  0  0
  133.9582  120.8157  127.0945 H   0  0  0  0  0  0  0  0  0  0  0  0
  136.1821  120.2697  126.1035 H   0  0  0  0  0  0  0  0  0  0  0  0
  137.1822  121.7599  124.3788 H   0  0  0  0  0  0  0  0  0  0  0  0
  135.5592  124.9990  123.3058 H   0  0  0  0  0  0  0  0  0  0  0  0
  137.1838  124.2180  123.6034 H   0  0  0  0  0  0  0  0  0  0  0  0
  136.9452  122.7227  121.8490 H   0  0  0  0  0  0  0  0  0  0  0  0
  135.1288  122.9703  121.7928 H   0  0  0  0  0  0  0  0  0  0  0  0
  136.5422  125.7399  122.4388 H   0  0  0  0  0  0  0  0  0  0  0  0
  137.5358  126.0870  120.9831 H   0  0  0  0  0  0  0  0  0  0  0  0
  135.7798  126.4654  120.9831 H   0  0  0  0  0  0  0  0  0  0  0  0
  134.1676  124.3008  120.6471 H   0  0  0  0  0  0  0  0  0  0  0  0
  135.0186  125.3946  119.4581 H   0  0  0  0  0  0  0  0  0  0  0  0
  134.5081  124.6743  117.3083 H   0  0  0  0  0  0  0  0  0  0  0  0
  134.4521  122.8626  115.5976 H   0  0  0  0  0  0  0  0  0  0  0  0
  134.9227  120.5041  116.2563 H   0  0  0  0  0  0  0  0  0  0  0  0
  135.4520  119.9544  118.6294 H   0  0  0  0  0  0  0  0  0  0  0  0
  135.5113  121.7591  120.3452 H   0  0  0  0  0  0  0  0  0  0  0  0
  133.7335  124.3569  124.6179 H   0  0  0  0  0  0  0  0  0  0  0  0
  1  2  1  0
  2  3  1  0
  3  4  2  0
  3  5  1  0
  5  6  1  0
  6  7  2  0
  7  8  1  0
  8  9  2  0
  9 10  1  0
 10 11  1  0
 11 12  1  0
 12 13  1  0
 12 14  1  0
 14 15  1  0
 15 16  2  0
 16 17  1  0
 17 18  2  0
 18 19  1  0
 19 20  2  0
  9 21  1  0
 21  5  2  0
 20 15  1  0
  1 22  1  0
  1 23  1  0
  1 24  1  0
  6 25  1  0
  7 26  1  0
  8 27  1  0
 10 28  1  0
 10 29  1  0
 11 30  1  0
 11 31  1  0
 13 32  1  0
 13 33  1  0
 13 34  1  0
 14 35  1  0
 14 36  1  0
 16 37  1  0
 17 38  1  0
 18 39  1  0
 19 40  1  0
 20 41  1  0
 21 42  1  0
M  END
>  <meeko>  (9) 
{"is_sidechain": [false], "free_energy": -6.499, "intermolecular_energy": -11.593, "internal_energy": -0.099}

$$$$
seed-5301
     RDKit          3D

 42 43  0  0  0  0  0  0  0  0999 V2000
  129.5510  127.8840  127.3070 C   0  0  0  0  0  0  0  0  0  0  0  0
  130.5450  126.8640  127.3960 O   0  0  0  0  0  0  0  0  0  0  0  0
  131.6140  127.0650  126.5850 C   0  0  0  0  0  0  0  0  0  0  0  0
  132.2890  128.0820  126.5340 O   0  0  0  0  0  0  0  0  0  0  0  0
  131.8720  125.8630  125.7440 C   0  0  0  0  0  0  0  0  0  0  0  0
  131.7320  125.8770  124.3510 C   0  0  0  0  0  0  0  0  0  0  0  0
  131.9910  124.7230  123.6100 C   0  0  0  0  0  0  0  0  0  0  0  0
  132.3880  123.5510  124.2560 C   0  0  0  0  0  0  0  0  0  0  0  0
  132.5300  123.5160  125.6500 C   0  0  0  0  0  0  0  0  0  0  0  0
  132.9750  122.2500  126.3460 C   0  0  0  0  0  0  0  0  0  0  0  0
  134.0880  121.4940  125.5940 C   0  0  0  0  0  0  0  0  0  0  0  0
  135.3530  121.3640  126.3480 N   0  0  0  0  0  0  0  0  0  0  0  0
  135.3140  122.1350  127.5950 C   0  0  0  0  0  0  0  0  0  0  0  0
  136.4890  121.7860  125.5070 C   0  0  0  0  0  0  0  0  0  0  0  0
  136.1360  122.8890  124.5310 C   0  0  0  0  0  0  0  0  0  0  0  0
  136.0900  124.2260  124.9470 C   0  0  0  0  0  0  0  0  0  0  0  0
  135.7480  125.2370  124.0450 C   0  0  0  0  0  0  0  0  0  0  0  0
  135.4450  124.9190  122.7220 C   0  0  0  0  0  0  0  0  0  0  0  0
  135.4830  123.5930  122.2970 C   0  0  0  0  0  0  0  0  0  0  0  0
  135.8250  122.5820  123.1970 C   0  0  0  0  0  0  0  0  0  0  0  0
  132.2720  124.6810  126.3860 C   0  0  0  0  0  0  0  0  0  0  0  0
  129.2504  128.1924  128.3192 H   0  0  0  0  0  0  0  0  0  0  0  0
  129.9614  128.7498  126.7666 H   0  0  0  0  0  0  0  0  0  0  0  0
  128.6749  127.4961  126.7666 H   0  0  0  0  0  0  0  0  0  0  0  0
  131.4174  126.7988  123.8399 H   0  0  0  0  0  0  0  0  0  0  0  0
  131.8821  124.7371  122.5155 H   0  0  0  0  0  0  0  0  0  0  0  0
  132.5915  122.6458  123.6651 H   0  0  0  0  0  0  0  0  0  0  0  0
  133.3486  122.5153  127.3460 H   0  0  0  0  0  0  0  0  0  0  0  0
  132.1027  121.5814  126.3905 H   0  0  0  0  0  0  0  0  0  0  0  0
  133.7209  120.4837  125.3606 H   0  0  0  0  0  0  0  0  0  0  0  0
  134.3171  122.0845  124.6947 H   0  0  0  0  0  0  0  0  0  0  0  0
  135.3488  121.4471  128.4527 H   0  0  0  0  0  0  0  0  0  0  0  0
  136.1790  122.8135  127.6338 H   0  0  0  0  0  0  0  0  0  0  0  0
  134.3850  122.7227  127.6338 H   0  0  0  0  0  0  0  0  0  0  0  0
  137.2946  122.1459  126.1638 H   0  0  0  0  0  0  0  0  0  0  0  0
  136.7965  120.9125  124.9134 H   0  0  0  0  0  0  0  0  0  0  0  0
  136.3247  124.4817  125.9908 H   0  0  0  0  0  0  0  0  0  0  0  0
  135.7179  126.2846  124.3792 H   0  0  0  0  0  0  0  0  0  0  0  0
  135.1757  125.7158  122.0131 H   0  0  0  0  0  0  0  0  0  0  0  0
  135.2437  123.3426  121.2529 H   0  0  0  0  0  0  0  0  0  0  0  0
  135.8510  121.5359  122.8579 H   0  0  0  0  0  0  0  0  0  0  0  0
  132.3845  124.6684  127.4802 H   0  0  0  0  0  0  0  0  0  0  0  0
  1  2  1  0
  2  3  1  0
  3  4  2  0
  3  5  1  0
  5  6  1  0
  6  7  2  0
  7  8  1  0
  8  9  2  0
  9 10  1  0
 10 11  1  0
 11 12  1  0
 12 13  1  0
 12 14  1  0
 14 15  1  0
 15 16  2  0
 16 17  1  0
 17 18  2  0
 18 19  1  0
 19 20  2  0
  9 21  1  0
 21  5  2  0
 20 15  1  0
  1 22  1  0
  1 23  1  0
  1 24  1  0
  6 25  1  0
  7 26  1  0
  8 27  1  0
 10 28  1  0
 10 29  1  0
 11 30  1  0
 11 31  1  0
 13 32  1  0
 13 33  1  0
 13 34  1  0
 14 35  1  0
 14 36  1  0
 16 37  1  0
 17 38  1  0
 18 39  1  0
 19 40  1  0
 20 41  1  0
 21 42  1  0
M  END
>  <meeko>  (10) 
{"is_sidechain": [false], "free_energy": -6.44, "intermolecular_energy": -10.016, "internal_energy": -1.594}

$$$$
seed-5301
     RDKit          3D

 42 43  0  0  0  0  0  0  0  0999 V2000
  127.8380  127.6910  123.0380 C   0  0  0  0  0  0  0  0  0  0  0  0
  128.4450  126.6300  123.7760 O   0  0  0  0  0  0  0  0  0  0  0  0
  129.0540  127.0330  124.9200 C   0  0  0  0  0  0  0  0  0  0  0  0
  128.6120  127.8520  125.7120 O   0  0  0  0  0  0  0  0  0  0  0  0
  130.3580  126.3370  125.0970 C   0  0  0  0  0  0  0  0  0  0  0  0
  130.7560  125.7880  126.3210 C   0  0  0  0  0  0  0  0  0  0  0  0
  131.9890  125.1410  126.4300 C   0  0  0  0  0  0  0  0  0  0  0  0
  132.8290  125.0440  125.3200 C   0  0  0  0  0  0  0  0  0  0  0  0
  132.4500  125.5920  124.0870 C   0  0  0  0  0  0  0  0  0  0  0  0
  133.3550  125.4720  122.8820 C   0  0  0  0  0  0  0  0  0  0  0  0
  134.8490  125.6530  123.2150 C   0  0  0  0  0  0  0  0  0  0  0  0
  135.7480  124.7140  122.5120 N   0  0  0  0  0  0  0  0  0  0  0  0
  136.0440  125.1750  121.1520 C   0  0  0  0  0  0  0  0  0  0  0  0
  135.1540  123.3640  122.4900 C   0  0  0  0  0  0  0  0  0  0  0  0
  135.3530  122.6000  123.7830 C   0  0  0  0  0  0  0  0  0  0  0  0
  136.5910  122.6100  124.4390 C   0  0  0  0  0  0  0  0  0  0  0  0
  136.7720  121.8890  125.6220 C   0  0  0  0  0  0  0  0  0  0  0  0
  135.7180  121.1500  126.1580 C   0  0  0  0  0  0  0  0  0  0  0  0
  134.4830  121.1290  125.5130 C   0  0  0  0  0  0  0  0  0  0  0  0
  134.3010  121.8480  124.3310 C   0  0  0  0  0  0  0  0  0  0  0  0
  131.2080  126.2350  123.9850 C   0  0  0  0  0  0  0  0  0  0  0  0
  127.4159  128.4287  123.7363 H   0  0  0  0  0  0  0  0  0  0  0  0
  128.5948  128.1768  122.4046 H   0  0  0  0  0  0  0  0  0  0  0  0
  127.0356  127.2848  122.4046 H   0  0  0  0  0  0  0  0  0  0  0  0
  130.0971  125.8661  127.1983 H   0  0  0  0  0  0  0  0  0  0  0  0
  132.2984  124.7072  127.3924 H   0  0  0  0  0  0  0  0  0  0  0  0
  133.7982  124.5324  125.4136 H   0  0  0  0  0  0  0  0  0  0  0  0
  133.2152  124.4747  122.4395 H   0  0  0  0  0  0  0  0  0  0  0  0
  133.0781  126.2789  122.1876 H   0  0  0  0  0  0  0  0  0  0  0  0
  135.1407  126.6780  122.9426 H   0  0  0  0  0  0  0  0  0  0  0  0
  134.9587  125.4480  124.2902 H   0  0  0  0  0  0  0  0  0  0  0  0
  136.6378  126.0998  121.1994 H   0  0  0  0  0  0  0  0  0  0  0  0
  136.6139  124.4003  120.6181 H   0  0  0  0  0  0  0  0  0  0  0  0
  135.1024  125.3708  120.6181 H   0  0  0  0  0  0  0  0  0  0  0  0
  134.0741  123.4608  122.3044 H   0  0  0  0  0  0  0  0  0  0  0  0
  135.6622  122.7976  121.6957 H   0  0  0  0  0  0  0  0  0  0  0  0
  137.4265  123.1897  124.0196 H   0  0  0  0  0  0  0  0  0  0  0  0
  137.7470  121.9043  126.1311 H   0  0  0  0  0  0  0  0  0  0  0  0
  135.8614  120.5836  127.0900 H   0  0  0  0  0  0  0  0  0  0  0  0
  133.6516  120.5457  125.9356 H   0  0  0  0  0  0  0  0  0  0  0  0
  133.3250  121.8256  123.8240 H   0  0  0  0  0  0  0  0  0  0  0  0
  130.8962  126.6647  123.0216 H   0  0  0  0  0  0  0  0  0  0  0  0
  1  2  1  0
  2  3  1  0
  3  4  2  0
  3  5  1  0
  5  6  1  0
  6  7  2  0
  7  8  1  0
  8  9  2  0
  9 10  1  0
 10 11  1  0
 11 12  1  0
 12 13  1  0
 12 14  1  0
 14 15  1  0
 15 16  2  0
 16 17  1  0
 17 18  2  0
 18 19  1  0
 19 20  2  0
  9 21  1  0
 21  5  2  0
 20 15  1  0
  1 22  1  0
  1 23  1  0
  1 24  1  0
  6 25  1  0
  7 26  1  0
  8 27  1  0
 10 28  1  0
 10 29  1  0
 11 30  1  0
 11 31  1  0
 13 32  1  0
 13 33  1  0
 13 34  1  0
 14 35  1  0
 14 36  1  0
 16 37  1  0
 17 38  1  0
 18 39  1  0
 19 40  1  0
 20 41  1  0
 21 42  1  0
M  END
>  <meeko>  (11) 
{"is_sidechain": [false], "free_energy": -6.367, "intermolecular_energy": -10.414, "internal_energy": -1.092}

$$$$
seed-5301
     RDKit          3D

 42 43  0  0  0  0  0  0  0  0999 V2000
  135.3530  120.2660  116.4850 C   0  0  0  0  0  0  0  0  0  0  0  0
  135.0980  121.1310  117.5920 O   0  0  0  0  0  0  0  0  0  0  0  0
  135.0310  122.4450  117.2600 C   0  0  0  0  0  0  0  0  0  0  0  0
  135.0110  122.8930  116.1240 O   0  0  0  0  0  0  0  0  0  0  0  0
  134.9820  123.2960  118.4810 C   0  0  0  0  0  0  0  0  0  0  0  0
  134.4300  124.5820  118.4780 C   0  0  0  0  0  0  0  0  0  0  0  0
  134.4060  125.3360  119.6530 C   0  0  0  0  0  0  0  0  0  0  0  0
  134.9340  124.8100  120.8330 C   0  0  0  0  0  0  0  0  0  0  0  0
  135.4960  123.5260  120.8540 C   0  0  0  0  0  0  0  0  0  0  0  0
  136.0540  122.9530  122.1360 C   0  0  0  0  0  0  0  0  0  0  0  0
  134.9740  122.3800  123.0760 C   0  0  0  0  0  0  0  0  0  0  0  0
  135.3600  122.3480  124.5010 N   0  0  0  0  0  0  0  0  0  0  0  0
  135.0090  121.0660  125.1210 C   0  0  0  0  0  0  0  0  0  0  0  0
  134.7270  123.4680  125.2230 C   0  0  0  0  0  0  0  0  0  0  0  0
  135.5260  124.7540  125.1550 C   0  0  0  0  0  0  0  0  0  0  0  0
  134.9420  125.9350  124.6770 C   0  0  0  0  0  0  0  0  0  0  0  0
  135.6900  127.1130  124.6020 C   0  0  0  0  0  0  0  0  0  0  0  0
  137.0260  127.1190  125.0010 C   0  0  0  0  0  0  0  0  0  0  0  0
  137.6180  125.9500  125.4730 C   0  0  0  0  0  0  0  0  0  0  0  0
  136.8730  124.7730  125.5490 C   0  0  0  0  0  0  0  0  0  0  0  0
  135.5120  122.7740  119.6710 C   0  0  0  0  0  0  0  0  0  0  0  0
  135.6458  119.2726  116.8557 H   0  0  0  0  0  0  0  0  0  0  0  0
  134.4433  120.1755  115.8732 H   0  0  0  0  0  0  0  0  0  0  0  0
  136.1663  120.6834  115.8732 H   0  0  0  0  0  0  0  0  0  0  0  0
  134.0145  124.9993  117.5489 H   0  0  0  0  0  0  0  0  0  0  0  0
  133.9703  126.3460  119.6486 H   0  0  0  0  0  0  0  0  0  0  0  0
  134.9089  125.4088  121.7554 H   0  0  0  0  0  0  0  0  0  0  0  0
  136.7562  122.1460  121.8799 H   0  0  0  0  0  0  0  0  0  0  0  0
  136.5444  123.7786  122.6725 H   0  0  0  0  0  0  0  0  0  0  0  0
  134.0696  122.9985  122.9784 H   0  0  0  0  0  0  0  0  0  0  0  0
  134.8142  121.3354  122.7706 H   0  0  0  0  0  0  0  0  0  0  0  0
  135.0370  121.1684  126.2159 H   0  0  0  0  0  0  0  0  0  0  0  0
  133.9971  120.7713  124.8061 H   0  0  0  0  0  0  0  0  0  0  0  0
  135.7296  120.2969  124.8061 H   0  0  0  0  0  0  0  0  0  0  0  0
  133.7349  123.6499  124.7841 H   0  0  0  0  0  0  0  0  0  0  0  0
  134.6653  123.1788  126.2825 H   0  0  0  0  0  0  0  0  0  0  0  0
  133.8889  125.9346  124.3591 H   0  0  0  0  0  0  0  0  0  0  0  0
  135.2243  128.0366  124.2277 H   0  0  0  0  0  0  0  0  0  0  0  0
  137.6128  128.0476  124.9430 H   0  0  0  0  0  0  0  0  0  0  0  0
  138.6726  125.9548  125.7857 H   0  0  0  0  0  0  0  0  0  0  0  0
  137.3453  123.8518  125.9209 H   0  0  0  0  0  0  0  0  0  0  0  0
  135.9451  121.7629  119.6755 H   0  0  0  0  0  0  0  0  0  0  0  0
  1  2  1  0
  2  3  1  0
  3  4  2  0
  3  5  1  0
  5  6  1  0
  6  7  2  0
  7  8  1  0
  8  9  2  0
  9 10  1  0
 10 11  1  0
 11 12  1  0
 12 13  1  0
 12 14  1  0
 14 15  1  0
 15 16  2  0
 16 17  1  0
 17 18  2  0
 18 19  1  0
 19 20  2  0
  9 21  1  0
 21  5  2  0
 20 15  1  0
  1 22  1  0
  1 23  1  0
  1 24  1  0
  6 25  1  0
  7 26  1  0
  8 27  1  0
 10 28  1  0
 10 29  1  0
 11 30  1  0
 11 31  1  0
 13 32  1  0
 13 33  1  0
 13 34  1  0
 14 35  1  0
 14 36  1  0
 16 37  1  0
 17 38  1  0
 18 39  1  0
 19 40  1  0
 20 41  1  0
 21 42  1  0
M  END
>  <meeko>  (12) 
{"is_sidechain": [false], "free_energy": -6.342, "intermolecular_energy": -10.566, "internal_energy": -0.906}

$$$$
seed-5301
     RDKit          3D

 42 43  0  0  0  0  0  0  0  0999 V2000
  135.3170  120.4470  117.8850 C   0  0  0  0  0  0  0  0  0  0  0  0
  134.3540  121.4920  117.7440 O   0  0  0  0  0  0  0  0  0  0  0  0
  134.8930  122.6980  117.4330 C   0  0  0  0  0  0  0  0  0  0  0  0
  135.3100  123.0300  116.3350 O   0  0  0  0  0  0  0  0  0  0  0  0
  134.9120  123.5900  118.6250 C   0  0  0  0  0  0  0  0  0  0  0  0
  134.4100  124.8960  118.5950 C   0  0  0  0  0  0  0  0  0  0  0  0
  134.4490  125.6880  119.7430 C   0  0  0  0  0  0  0  0  0  0  0  0
  134.9910  125.1810  120.9250 C   0  0  0  0  0  0  0  0  0  0  0  0
  135.5040  123.8780  120.9740 C   0  0  0  0  0  0  0  0  0  0  0  0
  136.0780  123.3260  122.2590 C   0  0  0  0  0  0  0  0  0  0  0  0
  135.0320  123.1620  123.3790 C   0  0  0  0  0  0  0  0  0  0  0  0
  135.1090  124.1870  124.4410 N   0  0  0  0  0  0  0  0  0  0  0  0
  136.4460  124.7870  124.5080 C   0  0  0  0  0  0  0  0  0  0  0  0
  134.7340  123.5990  125.7410 C   0  0  0  0  0  0  0  0  0  0  0  0
  133.2910  123.8600  126.1240 C   0  0  0  0  0  0  0  0  0  0  0  0
  132.4360  122.8020  126.4590 C   0  0  0  0  0  0  0  0  0  0  0  0
  131.1030  123.0480  126.7950 C   0  0  0  0  0  0  0  0  0  0  0  0
  130.6120  124.3530  126.7950 C   0  0  0  0  0  0  0  0  0  0  0  0
  131.4510  125.4130  126.4580 C   0  0  0  0  0  0  0  0  0  0  0  0
  132.7840  125.1690  126.1230 C   0  0  0  0  0  0  0  0  0  0  0  0
  135.4570  123.0870  119.8180 C   0  0  0  0  0  0  0  0  0  0  0  0
  135.4949  120.2540  118.9532 H   0  0  0  0  0  0  0  0  0  0  0  0
  134.9385  119.5324  117.4052 H   0  0  0  0  0  0  0  0  0  0  0  0
  136.2594  120.7497  117.4052 H   0  0  0  0  0  0  0  0  0  0  0  0
  133.9838  125.2990  117.6644 H   0  0  0  0  0  0  0  0  0  0  0  0
  134.0520  126.7135  119.7164 H   0  0  0  0  0  0  0  0  0  0  0  0
  135.0157  125.8104  121.8268 H   0  0  0  0  0  0  0  0  0  0  0  0
  136.5197  122.3409  122.0481 H   0  0  0  0  0  0  0  0  0  0  0  0
  136.8247  124.0500  122.6171 H   0  0  0  0  0  0  0  0  0  0  0  0
  134.0312  123.2114  122.9251 H   0  0  0  0  0  0  0  0  0  0  0  0
  135.2370  122.1946  123.8608 H   0  0  0  0  0  0  0  0  0  0  0  0
  136.7370  124.9176  125.5608 H   0  0  0  0  0  0  0  0  0  0  0  0
  137.1695  124.1273  124.0067 H   0  0  0  0  0  0  0  0  0  0  0  0
  136.4341  125.7661  124.0067 H   0  0  0  0  0  0  0  0  0  0  0  0
  134.8903  122.5114  125.6902 H   0  0  0  0  0  0  0  0  0  0  0  0
  135.3650  124.0735  126.5070 H   0  0  0  0  0  0  0  0  0  0  0  0
  132.8173  121.7702  126.4574 H   0  0  0  0  0  0  0  0  0  0  0  0
  130.4397  122.2114  127.0599 H   0  0  0  0  0  0  0  0  0  0  0  0
  129.5622  124.5456  127.0611 H   0  0  0  0  0  0  0  0  0  0  0  0
  131.0630  126.4423  126.4559 H   0  0  0  0  0  0  0  0  0  0  0  0
  133.4422  126.0090  125.8562 H   0  0  0  0  0  0  0  0  0  0  0  0
  135.8514  122.0605  119.8452 H   0  0  0  0  0  0  0  0  0  0  0  0
  1  2  1  0
  2  3  1  0
  3  4  2  0
  3  5  1  0
  5  6  1  0
  6  7  2  0
  7  8  1  0
  8  9  2  0
  9 10  1  0
 10 11  1  0
 11 12  1  0
 12 13  1  0
 12 14  1  0
 14 15  1  0
 15 16  2  0
 16 17  1  0
 17 18  2  0
 18 19  1  0
 19 20  2  0
  9 21  1  0
 21  5  2  0
 20 15  1  0
  1 22  1  0
  1 23  1  0
  1 24  1  0
  6 25  1  0
  7 26  1  0
  8 27  1  0
 10 28  1  0
 10 29  1  0
 11 30  1  0
 11 31  1  0
 13 32  1  0
 13 33  1  0
 13 34  1  0
 14 35  1  0
 14 36  1  0
 16 37  1  0
 17 38  1  0
 18 39  1  0
 19 40  1  0
 20 41  1  0
 21 42  1  0
M  END
>  <meeko>  (13) 
{"is_sidechain": [false], "free_energy": -6.32, "intermolecular_energy": -11.125, "internal_energy": -0.315}

$$$$
seed-5301
     RDKit          3D

 42 43  0  0  0  0  0  0  0  0999 V2000
  135.0230  122.4190  116.2150 C   0  0  0  0  0  0  0  0  0  0  0  0
  135.5360  123.4180  117.0960 O   0  0  0  0  0  0  0  0  0  0  0  0
  134.5760  124.1140  117.7570 C   0  0  0  0  0  0  0  0  0  0  0  0
  133.6480  124.7160  117.2400 O   0  0  0  0  0  0  0  0  0  0  0  0
  134.7990  124.0520  119.2280 C   0  0  0  0  0  0  0  0  0  0  0  0
  135.6140  123.0820  119.8240 C   0  0  0  0  0  0  0  0  0  0  0  0
  135.7920  123.0720  121.2090 C   0  0  0  0  0  0  0  0  0  0  0  0
  135.1550  124.0270  122.0030 C   0  0  0  0  0  0  0  0  0  0  0  0
  134.3310  125.0020  121.4250 C   0  0  0  0  0  0  0  0  0  0  0  0
  133.6540  126.0450  122.2860 C   0  0  0  0  0  0  0  0  0  0  0  0
  133.7360  125.7430  123.7950 C   0  0  0  0  0  0  0  0  0  0  0  0
  132.4320  125.4690  124.4340 N   0  0  0  0  0  0  0  0  0  0  0  0
  131.3620  126.2710  123.8310 C   0  0  0  0  0  0  0  0  0  0  0  0
  132.5170  125.7190  125.8860 C   0  0  0  0  0  0  0  0  0  0  0  0
  131.2290  125.4130  126.6240 C   0  0  0  0  0  0  0  0  0  0  0  0
  130.4760  126.4400  127.2070 C   0  0  0  0  0  0  0  0  0  0  0  0
  129.2990  126.1490  127.9010 C   0  0  0  0  0  0  0  0  0  0  0  0
  128.8670  124.8280  128.0200 C   0  0  0  0  0  0  0  0  0  0  0  0
  129.6090  123.7980  127.4480 C   0  0  0  0  0  0  0  0  0  0  0  0
  130.7860  124.0870  126.7550 C   0  0  0  0  0  0  0  0  0  0  0  0
  134.1620  125.0080  120.0340 C   0  0  0  0  0  0  0  0  0  0  0  0
  134.5988  121.5929  116.8046 H   0  0  0  0  0  0  0  0  0  0  0  0
  134.2385  122.8574  115.5807 H   0  0  0  0  0  0  0  0  0  0  0  0
  135.8364  122.0368  115.5807 H   0  0  0  0  0  0  0  0  0  0  0  0
  136.1148  122.3268  119.2004 H   0  0  0  0  0  0  0  0  0  0  0  0
  136.4350  122.3106  121.6748 H   0  0  0  0  0  0  0  0  0  0  0  0
  135.3012  124.0141  123.0932 H   0  0  0  0  0  0  0  0  0  0  0  0
  134.1345  127.0166  122.0986 H   0  0  0  0  0  0  0  0  0  0  0  0
  132.5882  126.0476  122.0137 H   0  0  0  0  0  0  0  0  0  0  0  0
  134.3798  124.8621  123.9352 H   0  0  0  0  0  0  0  0  0  0  0  0
  134.1371  126.6478  124.2751 H   0  0  0  0  0  0  0  0  0  0  0  0
  130.7534  126.7272  124.6257 H   0  0  0  0  0  0  0  0  0  0  0  0
  131.8038  127.0623  123.2076 H   0  0  0  0  0  0  0  0  0  0  0  0
  130.7264  125.6250  123.2076 H   0  0  0  0  0  0  0  0  0  0  0  0
  133.3162  125.0884  126.3026 H   0  0  0  0  0  0  0  0  0  0  0  0
  132.7223  126.7913  126.0202 H   0  0  0  0  0  0  0  0  0  0  0  0
  130.8137  127.4831  127.1178 H   0  0  0  0  0  0  0  0  0  0  0  0
  128.7126  126.9620  128.3539 H   0  0  0  0  0  0  0  0  0  0  0  0
  127.9397  124.5999  128.5660 H   0  0  0  0  0  0  0  0  0  0  0  0
  129.2678  122.7565  127.5421 H   0  0  0  0  0  0  0  0  0  0  0  0
  131.3709  123.2696  126.3081 H   0  0  0  0  0  0  0  0  0  0  0  0
  133.5220  125.7717  119.5680 H   0  0  0  0  0  0  0  0  0  0  0  0
  1  2  1  0
  2  3  1  0
  3  4  2  0
  3  5  1  0
  5  6  1  0
  6  7  2  0
  7  8  1  0
  8  9  2  0
  9 10  1  0
 10 11  1  0
 11 12  1  0
 12 13  1  0
 12 14  1  0
 14 15  1  0
 15 16  2  0
 16 17  1  0
 17 18  2  0
 18 19  1  0
 19 20  2  0
  9 21  1  0
 21  5  2  0
 20 15  1  0
  1 22  1  0
  1 23  1  0
  1 24  1  0
  6 25  1  0
  7 26  1  0
  8 27  1  0
 10 28  1  0
 10 29  1  0
 11 30  1  0
 11 31  1  0
 13 32  1  0
 13 33  1  0
 13 34  1  0
 14 35  1  0
 14 36  1  0
 16 37  1  0
 17 38  1  0
 18 39  1  0
 19 40  1  0
 20 41  1  0
 21 42  1  0
M  END
>  <meeko>  (14) 
{"is_sidechain": [false], "free_energy": -6.312, "intermolecular_energy": -11.064, "internal_energy": -0.365}

$$$$
seed-5301
     RDKit          3D

 42 43  0  0  0  0  0  0  0  0999 V2000
  135.2570  122.1170  127.6000 C   0  0  0  0  0  0  0  0  0  0  0  0
  135.1040  121.6480  126.2600 O   0  0  0  0  0  0  0  0  0  0  0  0
  136.1280  121.9870  125.4370 C   0  0  0  0  0  0  0  0  0  0  0  0
  137.3120  121.7760  125.6480 O   0  0  0  0  0  0  0  0  0  0  0  0
  135.6180  122.6660  124.2130 C   0  0  0  0  0  0  0  0  0  0  0  0
  136.4300  122.9170  123.1010 C   0  0  0  0  0  0  0  0  0  0  0  0
  135.8990  123.5530  121.9770 C   0  0  0  0  0  0  0  0  0  0  0  0
  134.5590  123.9420  121.9600 C   0  0  0  0  0  0  0  0  0  0  0  0
  133.7320  123.7040  123.0660 C   0  0  0  0  0  0  0  0  0  0  0  0
  132.2770  124.1130  123.0410 C   0  0  0  0  0  0  0  0  0  0  0  0
  132.0570  125.6150  123.3120 C   0  0  0  0  0  0  0  0  0  0  0  0
  130.9990  125.9070  124.3020 N   0  0  0  0  0  0  0  0  0  0  0  0
  130.4820  127.2700  124.1440 C   0  0  0  0  0  0  0  0  0  0  0  0
  131.5130  125.6980  125.6690 C   0  0  0  0  0  0  0  0  0  0  0  0
  130.4190  125.5300  126.7030 C   0  0  0  0  0  0  0  0  0  0  0  0
  130.1310  126.5550  127.6140 C   0  0  0  0  0  0  0  0  0  0  0  0
  129.1310  126.3870  128.5750 C   0  0  0  0  0  0  0  0  0  0  0  0
  128.4140  125.1930  128.6360 C   0  0  0  0  0  0  0  0  0  0  0  0
  128.6940  124.1650  127.7390 C   0  0  0  0  0  0  0  0  0  0  0  0
  129.6920  124.3310  126.7770 C   0  0  0  0  0  0  0  0  0  0  0  0
  134.2720  123.0610  124.1890 C   0  0  0  0  0  0  0  0  0  0  0  0
  134.9944  121.3122  128.3024 H   0  0  0  0  0  0  0  0  0  0  0  0
  136.3011  122.4215  127.7649 H   0  0  0  0  0  0  0  0  0  0  0  0
  134.5934  122.9786  127.7649 H   0  0  0  0  0  0  0  0  0  0  0  0
  137.4871  122.6131  123.1125 H   0  0  0  0  0  0  0  0  0  0  0  0
  136.5383  123.7478  121.1033 H   0  0  0  0  0  0  0  0  0  0  0  0
  134.1478  124.4403  121.0697 H   0  0  0  0  0  0  0  0  0  0  0  0
  131.8648  123.8738  122.0496 H   0  0  0  0  0  0  0  0  0  0  0  0
  131.7711  123.5607  123.8467 H   0  0  0  0  0  0  0  0  0  0  0  0
  133.0016  126.0400  123.6821 H   0  0  0  0  0  0  0  0  0  0  0  0
  131.7301  126.0615  122.3613 H   0  0  0  0  0  0  0  0  0  0  0  0
  130.3131  127.7153  125.1355 H   0  0  0  0  0  0  0  0  0  0  0  0
  131.2123  127.8771  123.5890 H   0  0  0  0  0  0  0  0  0  0  0  0
  129.5328  127.2401  123.5890 H   0  0  0  0  0  0  0  0  0  0  0  0
  132.1379  124.7927  125.6721 H   0  0  0  0  0  0  0  0  0  0  0  0
  132.0837  126.5976  125.9428 H   0  0  0  0  0  0  0  0  0  0  0  0
  130.6959  127.4979  127.5722 H   0  0  0  0  0  0  0  0  0  0  0  0
  128.9091  127.1979  129.2844 H   0  0  0  0  0  0  0  0  0  0  0  0
  127.6266  125.0627  129.3930 H   0  0  0  0  0  0  0  0  0  0  0  0
  128.1289  123.2225  127.7885 H   0  0  0  0  0  0  0  0  0  0  0  0
  129.9106  123.5160  126.0713 H   0  0  0  0  0  0  0  0  0  0  0  0
  133.6324  122.8638  125.0619 H   0  0  0  0  0  0  0  0  0  0  0  0
  1  2  1  0
  2  3  1  0
  3  4  2  0
  3  5  1  0
  5  6  1  0
  6  7  2  0
  7  8  1  0
  8  9  2  0
  9 10  1  0
 10 11  1  0
 11 12  1  0
 12 13  1  0
 12 14  1  0
 14 15  1  0
 15 16  2  0
 16 17  1  0
 17 18  2  0
 18 19  1  0
 19 20  2  0
  9 21  1  0
 21  5  2  0
 20 15  1  0
  1 22  1  0
  1 23  1  0
  1 24  1  0
  6 25  1  0
  7 26  1  0
  8 27  1  0
 10 28  1  0
 10 29  1  0
 11 30  1  0
 11 31  1  0
 13 32  1  0
 13 33  1  0
 13 34  1  0
 14 35  1  0
 14 36  1  0
 16 37  1  0
 17 38  1  0
 18 39  1  0
 19 40  1  0
 20 41  1  0
 21 42  1  0
M  END
>  <meeko>  (15) 
{"is_sidechain": [false], "free_energy": -6.3, "intermolecular_energy": -10.809, "internal_energy": -0.603}

$$$$
seed-5301
     RDKit          3D

 42 43  0  0  0  0  0  0  0  0999 V2000
  135.5640  119.7110  116.1410 C   0  0  0  0  0  0  0  0  0  0  0  0
  135.1380  120.7460  117.0280 O   0  0  0  0  0  0  0  0  0  0  0  0
  135.1970  121.9900  116.4910 C   0  0  0  0  0  0  0  0  0  0  0  0
  135.4650  122.2540  115.3290 O   0  0  0  0  0  0  0  0  0  0  0  0
  134.8850  123.0230  117.5180 C   0  0  0  0  0  0  0  0  0  0  0  0
  134.1400  124.1710  117.2260 C   0  0  0  0  0  0  0  0  0  0  0  0
  133.8730  125.1060  118.2290 C   0  0  0  0  0  0  0  0  0  0  0  0
  134.3500  124.8990  119.5240 C   0  0  0  0  0  0  0  0  0  0  0  0
  135.1020  123.7580  119.8340 C   0  0  0  0  0  0  0  0  0  0  0  0
  135.6050  123.5270  121.2410 C   0  0  0  0  0  0  0  0  0  0  0  0
  134.7630  124.2390  122.3190 C   0  0  0  0  0  0  0  0  0  0  0  0
  135.5540  125.0150  123.2970 N   0  0  0  0  0  0  0  0  0  0  0  0
  136.3770  126.0310  122.6330 C   0  0  0  0  0  0  0  0  0  0  0  0
  136.3930  124.1070  124.1030 C   0  0  0  0  0  0  0  0  0  0  0  0
  135.5890  123.1320  124.9390 C   0  0  0  0  0  0  0  0  0  0  0  0
  135.7140  121.7490  124.7450 C   0  0  0  0  0  0  0  0  0  0  0  0
  134.9580  120.8560  125.5080 C   0  0  0  0  0  0  0  0  0  0  0  0
  134.0690  121.3370  126.4690 C   0  0  0  0  0  0  0  0  0  0  0  0
  133.9330  122.7090  126.6680 C   0  0  0  0  0  0  0  0  0  0  0  0
  134.6880  123.6030  125.9070 C   0  0  0  0  0  0  0  0  0  0  0  0
  135.3610  122.8220  118.8230 C   0  0  0  0  0  0  0  0  0  0  0  0
  135.9185  118.8496  116.7261 H   0  0  0  0  0  0  0  0  0  0  0  0
  134.7202  119.4012  115.5069 H   0  0  0  0  0  0  0  0  0  0  0  0
  136.3813  120.0849  115.5069 H   0  0  0  0  0  0  0  0  0  0  0  0
  133.7642  124.3373  116.2056 H   0  0  0  0  0  0  0  0  0  0  0  0
  133.2858  126.0069  117.9976 H   0  0  0  0  0  0  0  0  0  0  0  0
  134.1336  125.6386  120.3089 H   0  0  0  0  0  0  0  0  0  0  0  0
  135.5884  122.4460  121.4438 H   0  0  0  0  0  0  0  0  0  0  0  0
  136.6208  123.9455  121.2946 H   0  0  0  0  0  0  0  0  0  0  0  0
  134.0687  124.9271  121.8145 H   0  0  0  0  0  0  0  0  0  0  0  0
  134.2477  123.4503  122.8868 H   0  0  0  0  0  0  0  0  0  0  0  0
  136.8784  126.6499  123.3917 H   0  0  0  0  0  0  0  0  0  0  0  0
  137.1329  125.5373  122.0046 H   0  0  0  0  0  0  0  0  0  0  0  0
  135.7371  126.6679  122.0046 H   0  0  0  0  0  0  0  0  0  0  0  0
  137.0396  123.5332  123.4228 H   0  0  0  0  0  0  0  0  0  0  0  0
  136.9734  124.7311  124.7985 H   0  0  0  0  0  0  0  0  0  0  0  0
  136.4122  121.3646  123.9868 H   0  0  0  0  0  0  0  0  0  0  0  0
  135.0639  119.7725  125.3508 H   0  0  0  0  0  0  0  0  0  0  0  0
  133.4750  120.6327  127.0700 H   0  0  0  0  0  0  0  0  0  0  0  0
  133.2305  123.0879  127.4249 H   0  0  0  0  0  0  0  0  0  0  0  0
  134.5760  124.6855  126.0671 H   0  0  0  0  0  0  0  0  0  0  0  0
  135.9445  121.9189  119.0553 H   0  0  0  0  0  0  0  0  0  0  0  0
  1  2  1  0
  2  3  1  0
  3  4  2  0
  3  5  1  0
  5  6  1  0
  6  7  2  0
  7  8  1  0
  8  9  2  0
  9 10  1  0
 10 11  1  0
 11 12  1  0
 12 13  1  0
 12 14  1  0
 14 15  1  0
 15 16  2  0
 16 17  1  0
 17 18  2  0
 18 19  1  0
 19 20  2  0
  9 21  1  0
 21  5  2  0
 20 15  1  0
  1 22  1  0
  1 23  1  0
  1 24  1  0
  6 25  1  0
  7 26  1  0
  8 27  1  0
 10 28  1  0
 10 29  1  0
 11 30  1  0
 11 31  1  0
 13 32  1  0
 13 33  1  0
 13 34  1  0
 14 35  1  0
 14 36  1  0
 16 37  1  0
 17 38  1  0
 18 39  1  0
 19 40  1  0
 20 41  1  0
 21 42  1  0
M  END
>  <meeko>  (16) 
{"is_sidechain": [false], "free_energy": -6.223, "intermolecular_energy": -10.658, "internal_energy": -0.646}

$$$$
seed-5301
     RDKit          3D

 42 43  0  0  0  0  0  0  0  0999 V2000
  134.8210  122.6500  117.5250 C   0  0  0  0  0  0  0  0  0  0  0  0
  135.5790  123.4620  118.4220 O   0  0  0  0  0  0  0  0  0  0  0  0
  135.3800  123.1680  119.7320 C   0  0  0  0  0  0  0  0  0  0  0  0
  135.4320  122.0530  120.2290 O   0  0  0  0  0  0  0  0  0  0  0  0
  135.0840  124.4030  120.5100 C   0  0  0  0  0  0  0  0  0  0  0  0
  134.4730  125.5240  119.9360 C   0  0  0  0  0  0  0  0  0  0  0  0
  134.2140  126.6540  120.7130 C   0  0  0  0  0  0  0  0  0  0  0  0
  134.5650  126.6710  122.0640 C   0  0  0  0  0  0  0  0  0  0  0  0
  135.1820  125.5600  122.6550 C   0  0  0  0  0  0  0  0  0  0  0  0
  135.5480  125.5740  124.1220 C   0  0  0  0  0  0  0  0  0  0  0  0
  134.3720  125.9500  125.0450 C   0  0  0  0  0  0  0  0  0  0  0  0
  133.1880  125.0770  124.9120 N   0  0  0  0  0  0  0  0  0  0  0  0
  131.9610  125.8630  124.7410 C   0  0  0  0  0  0  0  0  0  0  0  0
  133.0800  124.1870  126.0840 C   0  0  0  0  0  0  0  0  0  0  0  0
  134.1270  123.0920  126.1050 C   0  0  0  0  0  0  0  0  0  0  0  0
  134.3260  122.2700  124.9870 C   0  0  0  0  0  0  0  0  0  0  0  0
  135.2820  121.2520  125.0190 C   0  0  0  0  0  0  0  0  0  0  0  0
  136.0450  121.0450  126.1680 C   0  0  0  0  0  0  0  0  0  0  0  0
  135.8530  121.8530  127.2870 C   0  0  0  0  0  0  0  0  0  0  0  0
  134.8980  122.8710  127.2560 C   0  0  0  0  0  0  0  0  0  0  0  0
  135.4340  124.4270  121.8690 C   0  0  0  0  0  0  0  0  0  0  0  0
  134.1817  121.9652  118.1015 H   0  0  0  0  0  0  0  0  0  0  0  0
  134.1921  123.2925  116.8912 H   0  0  0  0  0  0  0  0  0  0  0  0
  135.5052  122.0667  116.8912 H   0  0  0  0  0  0  0  0  0  0  0  0
  134.1967  125.5143  118.8713 H   0  0  0  0  0  0  0  0  0  0  0  0
  133.7323  127.5330  120.2599 H   0  0  0  0  0  0  0  0  0  0  0  0
  134.3554  127.5646  122.6703 H   0  0  0  0  0  0  0  0  0  0  0  0
  135.9036  124.5714  124.4018 H   0  0  0  0  0  0  0  0  0  0  0  0
  136.3229  126.3433  124.2551 H   0  0  0  0  0  0  0  0  0  0  0  0
  134.7221  125.8984  126.0865 H   0  0  0  0  0  0  0  0  0  0  0  0
  134.0518  126.9600  124.7495 H   0  0  0  0  0  0  0  0  0  0  0  0
  131.5526  126.1246  125.7283 H   0  0  0  0  0  0  0  0  0  0  0  0
  132.1897  126.7831  124.1832 H   0  0  0  0  0  0  0  0  0  0  0  0
  131.2208  125.2705  124.1832 H   0  0  0  0  0  0  0  0  0  0  0  0
  133.1916  124.7940  126.9945 H   0  0  0  0  0  0  0  0  0  0  0  0
  132.0970  123.6962  126.0302 H   0  0  0  0  0  0  0  0  0  0  0  0
  133.7256  122.4276  124.0789 H   0  0  0  0  0  0  0  0  0  0  0  0
  135.4333  120.6127  124.1367 H   0  0  0  0  0  0  0  0  0  0  0  0
  136.7984  120.2438  126.1909 H   0  0  0  0  0  0  0  0  0  0  0  0
  136.4534  121.6889  128.1940 H   0  0  0  0  0  0  0  0  0  0  0  0
  134.7488  123.5055  128.1421 H   0  0  0  0  0  0  0  0  0  0  0  0
  135.9118  123.5462  122.3227 H   0  0  0  0  0  0  0  0  0  0  0  0
  1  2  1  0
  2  3  1  0
  3  4  2  0
  3  5  1  0
  5  6  1  0
  6  7  2  0
  7  8  1  0
  8  9  2  0
  9 10  1  0
 10 11  1  0
 11 12  1  0
 12 13  1  0
 12 14  1  0
 14 15  1  0
 15 16  2  0
 16 17  1  0
 17 18  2  0
 18 19  1  0
 19 20  2  0
  9 21  1  0
 21  5  2  0
 20 15  1  0
  1 22  1  0
  1 23  1  0
  1 24  1  0
  6 25  1  0
  7 26  1  0
  8 27  1  0
 10 28  1  0
 10 29  1  0
 11 30  1  0
 11 31  1  0
 13 32  1  0
 13 33  1  0
 13 34  1  0
 14 35  1  0
 14 36  1  0
 16 37  1  0
 17 38  1  0
 18 39  1  0
 19 40  1  0
 20 41  1  0
 21 42  1  0
M  END
>  <meeko>  (17) 
{"is_sidechain": [false], "free_energy": -6.183, "intermolecular_energy": -10.215, "internal_energy": -1.032}

$$$$
seed-5301
     RDKit          3D

 42 43  0  0  0  0  0  0  0  0999 V2000
  134.2590  124.2490  117.8630 C   0  0  0  0  0  0  0  0  0  0  0  0
  135.0330  124.0280  119.0420 O   0  0  0  0  0  0  0  0  0  0  0  0
  134.7040  124.8410  120.0770 C   0  0  0  0  0  0  0  0  0  0  0  0
  134.2970  125.9890  119.9800 O   0  0  0  0  0  0  0  0  0  0  0  0
  134.9030  124.1460  121.3780 C   0  0  0  0  0  0  0  0  0  0  0  0
  136.0680  123.4290  121.6760 C   0  0  0  0  0  0  0  0  0  0  0  0
  136.2050  122.7990  122.9140 C   0  0  0  0  0  0  0  0  0  0  0  0
  135.1810  122.8800  123.8580 C   0  0  0  0  0  0  0  0  0  0  0  0
  134.0050  123.5890  123.5770 C   0  0  0  0  0  0  0  0  0  0  0  0
  132.9020  123.6890  124.6060 C   0  0  0  0  0  0  0  0  0  0  0  0
  132.7670  125.0930  125.2280 C   0  0  0  0  0  0  0  0  0  0  0  0
  131.3780  125.5890  125.3180 N   0  0  0  0  0  0  0  0  0  0  0  0
  131.0790  126.5370  124.2390 C   0  0  0  0  0  0  0  0  0  0  0  0
  131.1460  126.2080  126.6370 C   0  0  0  0  0  0  0  0  0  0  0  0
  129.9970  125.5790  127.4000 C   0  0  0  0  0  0  0  0  0  0  0  0
  129.6570  124.2350  127.2020 C   0  0  0  0  0  0  0  0  0  0  0  0
  128.5870  123.6660  127.8970 C   0  0  0  0  0  0  0  0  0  0  0  0
  127.8460  124.4370  128.7930 C   0  0  0  0  0  0  0  0  0  0  0  0
  128.1730  125.7760  128.9950 C   0  0  0  0  0  0  0  0  0  0  0  0
  129.2420  126.3460  128.3010 C   0  0  0  0  0  0  0  0  0  0  0  0
  133.8770  124.2230  122.3330 C   0  0  0  0  0  0  0  0  0  0  0  0
  133.2366  124.5409  118.1449 H   0  0  0  0  0  0  0  0  0  0  0  0
  134.7186  125.0518  117.2678 H   0  0  0  0  0  0  0  0  0  0  0  0
  134.2254  123.3246  117.2678 H   0  0  0  0  0  0  0  0  0  0  0  0
  136.8767  123.3620  120.9333 H   0  0  0  0  0  0  0  0  0  0  0  0
  137.1221  122.2376  123.1457 H   0  0  0  0  0  0  0  0  0  0  0  0
  135.2976  122.3827  124.8322 H   0  0  0  0  0  0  0  0  0  0  0  0
  131.9491  123.4298  124.1214 H   0  0  0  0  0  0  0  0  0  0  0  0
  133.1569  122.9967  125.4219 H   0  0  0  0  0  0  0  0  0  0  0  0
  133.1876  125.0613  126.2439 H   0  0  0  0  0  0  0  0  0  0  0  0
  133.3051  125.7844  124.5629 H   0  0  0  0  0  0  0  0  0  0  0  0
  130.7748  127.5014  124.6720 H   0  0  0  0  0  0  0  0  0  0  0  0
  131.9755  126.6804  123.6180 H   0  0  0  0  0  0  0  0  0  0  0  0
  130.2624  126.1401  123.6180 H   0  0  0  0  0  0  0  0  0  0  0  0
  132.0620  126.1047  127.2373 H   0  0  0  0  0  0  0  0  0  0  0  0
  130.8827  127.2614  126.4611 H   0  0  0  0  0  0  0  0  0  0  0  0
  130.2362  123.6233  126.4946 H   0  0  0  0  0  0  0  0  0  0  0  0
  128.3284  122.6088  127.7376 H   0  0  0  0  0  0  0  0  0  0  0  0
  127.0038  123.9878  129.3398 H   0  0  0  0  0  0  0  0  0  0  0  0
  127.5889  126.3843  129.7013 H   0  0  0  0  0  0  0  0  0  0  0  0
  129.4945  127.4045  128.4616 H   0  0  0  0  0  0  0  0  0  0  0  0
  132.9615  124.7876  122.1026 H   0  0  0  0  0  0  0  0  0  0  0  0
  1  2  1  0
  2  3  1  0
  3  4  2  0
  3  5  1  0
  5  6  1  0
  6  7  2  0
  7  8  1  0
  8  9  2  0
  9 10  1  0
 10 11  1  0
 11 12  1  0
 12 13  1  0
 12 14  1  0
 14 15  1  0
 15 16  2  0
 16 17  1  0
 17 18  2  0
 18 19  1  0
 19 20  2  0
  9 21  1  0
 21  5  2  0
 20 15  1  0
  1 22  1  0
  1 23  1  0
  1 24  1  0
  6 25  1  0
  7 26  1  0
  8 27  1  0
 10 28  1  0
 10 29  1  0
 11 30  1  0
 11 31  1  0
 13 32  1  0
 13 33  1  0
 13 34  1  0
 14 35  1  0
 14 36  1  0
 16 37  1  0
 17 38  1  0
 18 39  1  0
 19 40  1  0
 20 41  1  0
 21 42  1  0
M  END
>  <meeko>  (18) 
{"is_sidechain": [false], "free_energy": -6.017, "intermolecular_energy": -10.466, "internal_energy": -0.546}

$$$$
seed-5301
     RDKit          3D

 42 43  0  0  0  0  0  0  0  0999 V2000
  135.6510  123.2990  121.0320 C   0  0  0  0  0  0  0  0  0  0  0  0
  135.6050  122.5560  122.2510 O   0  0  0  0  0  0  0  0  0  0  0  0
  135.5710  123.3300  123.3650 C   0  0  0  0  0  0  0  0  0  0  0  0
  136.1990  124.3630  123.5360 O   0  0  0  0  0  0  0  0  0  0  0  0
  134.6490  122.7500  124.3810 C   0  0  0  0  0  0  0  0  0  0  0  0
  134.8890  121.5160  124.9960 C   0  0  0  0  0  0  0  0  0  0  0  0
  133.9940  121.0220  125.9460 C   0  0  0  0  0  0  0  0  0  0  0  0
  132.8550  121.7550  126.2830 C   0  0  0  0  0  0  0  0  0  0  0  0
  132.5940  122.9900  125.6740 C   0  0  0  0  0  0  0  0  0  0  0  0
  131.3680  123.7890  126.0510 C   0  0  0  0  0  0  0  0  0  0  0  0
  131.6790  125.2520  126.4250 C   0  0  0  0  0  0  0  0  0  0  0  0
  130.4910  126.1250  126.5140 N   0  0  0  0  0  0  0  0  0  0  0  0
  129.7930  125.9480  127.7920 C   0  0  0  0  0  0  0  0  0  0  0  0
  129.5830  125.8620  125.3810 C   0  0  0  0  0  0  0  0  0  0  0  0
  129.2950  127.0930  124.5450 C   0  0  0  0  0  0  0  0  0  0  0  0
  128.1990  127.1240  123.6710 C   0  0  0  0  0  0  0  0  0  0  0  0
  127.9490  128.2560  122.8910 C   0  0  0  0  0  0  0  0  0  0  0  0
  128.7920  129.3630  122.9750 C   0  0  0  0  0  0  0  0  0  0  0  0
  129.8870  129.3420  123.8370 C   0  0  0  0  0  0  0  0  0  0  0  0
  130.1380  128.2120  124.6170 C   0  0  0  0  0  0  0  0  0  0  0  0
  133.5010  123.4820  124.7250 C   0  0  0  0  0  0  0  0  0  0  0  0
  135.7175  124.3731  121.2596 H   0  0  0  0  0  0  0  0  0  0  0  0
  136.5319  122.9925  120.4488 H   0  0  0  0  0  0  0  0  0  0  0  0
  134.7390  123.1035  120.4488 H   0  0  0  0  0  0  0  0  0  0  0  0
  135.7843  120.9347  124.7302 H   0  0  0  0  0  0  0  0  0  0  0  0
  134.1865  120.0532  126.4301 H   0  0  0  0  0  0  0  0  0  0  0  0
  132.1553  121.3594  127.0340 H   0  0  0  0  0  0  0  0  0  0  0  0
  130.6752  123.7877  125.1966 H   0  0  0  0  0  0  0  0  0  0  0  0
  130.9324  123.3127  126.9418 H   0  0  0  0  0  0  0  0  0  0  0  0
  132.1838  125.2574  127.4023 H   0  0  0  0  0  0  0  0  0  0  0  0
  132.3056  125.6562  125.6163 H   0  0  0  0  0  0  0  0  0  0  0  0
  130.4943  126.1258  128.6205 H   0  0  0  0  0  0  0  0  0  0  0  0
  128.9599  126.6633  127.8569 H   0  0  0  0  0  0  0  0  0  0  0  0
  129.4014  124.9221  127.8569 H   0  0  0  0  0  0  0  0  0  0  0  0
  130.0433  125.1006  124.7342 H   0  0  0  0  0  0  0  0  0  0  0  0
  128.6252  125.5235  125.8030 H   0  0  0  0  0  0  0  0  0  0  0  0
  127.5322  126.2521  123.5990 H   0  0  0  0  0  0  0  0  0  0  0  0
  127.0856  128.2737  122.2096 H   0  0  0  0  0  0  0  0  0  0  0  0
  128.5929  130.2535  122.3607 H   0  0  0  0  0  0  0  0  0  0  0  0
  130.5528  130.2151  123.9026 H   0  0  0  0  0  0  0  0  0  0  0  0
  131.0047  128.1988  125.2943 H   0  0  0  0  0  0  0  0  0  0  0  0
  133.3112  124.4529  124.2441 H   0  0  0  0  0  0  0  0  0  0  0  0
  1  2  1  0
  2  3  1  0
  3  4  2  0
  3  5  1  0
  5  6  1  0
  6  7  2  0
  7  8  1  0
  8  9  2  0
  9 10  1  0
 10 11  1  0
 11 12  1  0
 12 13  1  0
 12 14  1  0
 14 15  1  0
 15 16  2  0
 16 17  1  0
 17 18  2  0
 18 19  1  0
 19 20  2  0
  9 21  1  0
 21  5  2  0
 20 15  1  0
  1 22  1  0
  1 23  1  0
  1 24  1  0
  6 25  1  0
  7 26  1  0
  8 27  1  0
 10 28  1  0
 10 29  1  0
 11 30  1  0
 11 31  1  0
 13 32  1  0
 13 33  1  0
 13 34  1  0
 14 35  1  0
 14 36  1  0
 16 37  1  0
 17 38  1  0
 18 39  1  0
 19 40  1  0
 20 41  1  0
 21 42  1  0
M  END
>  <meeko>  (19) 
{"is_sidechain": [false], "free_energy": -5.943, "intermolecular_energy": -10.352, "internal_energy": -0.556}

$$$$
seed-5301
     RDKit          3D

 42 43  0  0  0  0  0  0  0  0999 V2000
  131.9920  125.2400  122.4270 C   0  0  0  0  0  0  0  0  0  0  0  0
  132.9570  126.1930  122.8710 O   0  0  0  0  0  0  0  0  0  0  0  0
  134.0180  126.3330  122.0370 C   0  0  0  0  0  0  0  0  0  0  0  0
  134.3730  127.3720  121.5020 O   0  0  0  0  0  0  0  0  0  0  0  0
  134.7150  125.0300  121.8490 C   0  0  0  0  0  0  0  0  0  0  0  0
  135.0340  124.5250  120.5830 C   0  0  0  0  0  0  0  0  0  0  0  0
  135.6930  123.3000  120.4640 C   0  0  0  0  0  0  0  0  0  0  0  0
  136.0340  122.5750  121.6060 C   0  0  0  0  0  0  0  0  0  0  0  0
  135.7200  123.0620  122.8820 C   0  0  0  0  0  0  0  0  0  0  0  0
  136.1030  122.2820  124.1190 C   0  0  0  0  0  0  0  0  0  0  0  0
  134.9030  121.6250  124.8280 C   0  0  0  0  0  0  0  0  0  0  0  0
  134.4620  122.3220  126.0540 N   0  0  0  0  0  0  0  0  0  0  0  0
  135.2430  121.8960  127.2200 C   0  0  0  0  0  0  0  0  0  0  0  0
  133.0220  122.0930  126.2770 C   0  0  0  0  0  0  0  0  0  0  0  0
  132.2230  123.3750  126.4040 C   0  0  0  0  0  0  0  0  0  0  0  0
  132.8090  124.6150  126.1150 C   0  0  0  0  0  0  0  0  0  0  0  0
  132.0710  125.7940  126.2500 C   0  0  0  0  0  0  0  0  0  0  0  0
  130.7450  125.7440  126.6770 C   0  0  0  0  0  0  0  0  0  0  0  0
  130.1530  124.5170  126.9710 C   0  0  0  0  0  0  0  0  0  0  0  0
  130.8880  123.3380  126.8370 C   0  0  0  0  0  0  0  0  0  0  0  0
  135.0620  124.2950  122.9930 C   0  0  0  0  0  0  0  0  0  0  0  0
  131.5145  124.7684  123.2985 H   0  0  0  0  0  0  0  0  0  0  0  0
  131.2278  125.7475  121.8201 H   0  0  0  0  0  0  0  0  0  0  0  0
  132.4900  124.4695  121.8201 H   0  0  0  0  0  0  0  0  0  0  0  0
  134.7651  125.0941  119.6808 H   0  0  0  0  0  0  0  0  0  0  0  0
  135.9437  122.9058  119.4681 H   0  0  0  0  0  0  0  0  0  0  0  0
  136.5546  121.6114  121.5039 H   0  0  0  0  0  0  0  0  0  0  0  0
  136.8102  121.4916  123.8271 H   0  0  0  0  0  0  0  0  0  0  0  0
  136.5456  122.9971  124.8280 H   0  0  0  0  0  0  0  0  0  0  0  0
  134.0585  121.6004  124.1236 H   0  0  0  0  0  0  0  0  0  0  0  0
  135.2321  120.6222  125.1381 H   0  0  0  0  0  0  0  0  0  0  0  0
  134.7144  122.1843  128.1406 H   0  0  0  0  0  0  0  0  0  0  0  0
  135.3701  120.8036  127.1970 H   0  0  0  0  0  0  0  0  0  0  0  0
  136.2302  122.3806  127.1970 H   0  0  0  0  0  0  0  0  0  0  0  0
  132.6247  121.5167  125.4284 H   0  0  0  0  0  0  0  0  0  0  0  0
  132.9221  121.5515  127.2292 H   0  0  0  0  0  0  0  0  0  0  0  0
  133.8558  124.6604  125.7800 H   0  0  0  0  0  0  0  0  0  0  0  0
  132.5373  126.7631  126.0189 H   0  0  0  0  0  0  0  0  0  0  0  0
  130.1657  126.6732  126.7819 H   0  0  0  0  0  0  0  0  0  0  0  0
  129.1068  124.4777  127.3086 H   0  0  0  0  0  0  0  0  0  0  0  0
  130.4175  122.3720  127.0726 H   0  0  0  0  0  0  0  0  0  0  0  0
  134.8147  124.6911  123.9890 H   0  0  0  0  0  0  0  0  0  0  0  0
  1  2  1  0
  2  3  1  0
  3  4  2  0
  3  5  1  0
  5  6  1  0
  6  7  2  0
  7  8  1  0
  8  9  2  0
  9 10  1  0
 10 11  1  0
 11 12  1  0
 12 13  1  0
 12 14  1  0
 14 15  1  0
 15 16  2  0
 16 17  1  0
 17 18  2  0
 18 19  1  0
 19 20  2  0
  9 21  1  0
 21  5  2  0
 20 15  1  0
  1 22  1  0
  1 23  1  0
  1 24  1  0
  6 25  1  0
  7 26  1  0
  8 27  1  0
 10 28  1  0
 10 29  1  0
 11 30  1  0
 11 31  1  0
 13 32  1  0
 13 33  1  0
 13 34  1  0
 14 35  1  0
 14 36  1  0
 16 37  1  0
 17 38  1  0
 18 39  1  0
 19 40  1  0
 20 41  1  0
 21 42  1  0
M  END
>  <meeko>  (20) 
{"is_sidechain": [false], "free_energy": -5.921, "intermolecular_energy": -10.124, "internal_energy": -0.754}

$$$$
