seed-5302
     RDKit          3D

 42 43  0  0  0  0  0  0  0  0999 V2000
  135.0310  123.2480  118.1570 C   0  0  0  0  0  0  0  0  0  0  0  0
  135.4270  123.4050  119.5200 O   0  0  0  0  0  0  0  0  0  0  0  0
  135.1480  124.6290  120.0370 C   0  0  0  0  0  0  0  0  0  0  0  0
  134.6390  125.5590  119.4310 O   0  0  0  0  0  0  0  0  0  0  0  0
  135.5480  124.7010  121.4690 C   0  0  0  0  0  0  0  0  0  0  0  0
  135.7310  125.9170  122.1380 C   0  0  0  0  0  0  0  0  0  0  0  0
  136.1020  125.9260  123.4840 C   0  0  0  0  0  0  0  0  0  0  0  0
  136.2940  124.7240  124.1660 C   0  0  0  0  0  0  0  0  0  0  0  0
  136.1190  123.4970  123.5120 C   0  0  0  0  0  0  0  0  0  0  0  0
  136.3130  122.1950  124.2560 C   0  0  0  0  0  0  0  0  0  0  0  0
  134.9900  121.5320  124.6890 C   0  0  0  0  0  0  0  0  0  0  0  0
  134.2930  122.2250  125.7930 N   0  0  0  0  0  0  0  0  0  0  0  0
  134.4240  121.4890  127.0540 C   0  0  0  0  0  0  0  0  0  0  0  0
  132.8720  122.4240  125.4490 C   0  0  0  0  0  0  0  0  0  0  0  0
  132.6130  123.7070  124.6850 C   0  0  0  0  0  0  0  0  0  0  0  0
  132.2870  123.6760  123.3220 C   0  0  0  0  0  0  0  0  0  0  0  0
  132.0670  124.8640  122.6210 C   0  0  0  0  0  0  0  0  0  0  0  0
  132.1730  126.0910  123.2730 C   0  0  0  0  0  0  0  0  0  0  0  0
  132.5010  126.1350  124.6260 C   0  0  0  0  0  0  0  0  0  0  0  0
  132.7220  124.9500  125.3290 C   0  0  0  0  0  0  0  0  0  0  0  0
  135.7420  123.4950  122.1620 C   0  0  0  0  0  0  0  0  0  0  0  0
  134.0091  122.8429  118.1164 H   0  0  0  0  0  0  0  0  0  0  0  0
  135.0584  124.2250  117.6523 H   0  0  0  0  0  0  0  0  0  0  0  0
  135.7204  122.5552  117.6523 H   0  0  0  0  0  0  0  0  0  0  0  0
  135.5824  126.8664  121.6027 H   0  0  0  0  0  0  0  0  0  0  0  0
  136.2432  126.8828  124.0079 H   0  0  0  0  0  0  0  0  0  0  0  0
  136.5854  124.7396  125.2266 H   0  0  0  0  0  0  0  0  0  0  0  0
  136.8544  121.4967  123.6008 H   0  0  0  0  0  0  0  0  0  0  0  0
  136.8746  122.4265  125.1730 H   0  0  0  0  0  0  0  0  0  0  0  0
  134.3170  121.5066  123.8193 H   0  0  0  0  0  0  0  0  0  0  0  0
  135.2480  120.5293  125.0606 H   0  0  0  0  0  0  0  0  0  0  0  0
  134.3004  122.1832  127.8983 H   0  0  0  0  0  0  0  0  0  0  0  0
  133.6507  120.7084  127.1050 H   0  0  0  0  0  0  0  0  0  0  0  0
  135.4192  121.0231  127.1050 H   0  0  0  0  0  0  0  0  0  0  0  0
  132.5407  121.5767  124.8306 H   0  0  0  0  0  0  0  0  0  0  0  0
  132.3145  122.4905  126.3949 H   0  0  0  0  0  0  0  0  0  0  0  0
  132.2040  122.7105  122.8014 H   0  0  0  0  0  0  0  0  0  0  0  0
  131.8095  124.8309  121.5521 H   0  0  0  0  0  0  0  0  0  0  0  0
  131.9976  127.0250  122.7191 H   0  0  0  0  0  0  0  0  0  0  0  0
  132.5858  127.1037  125.1403 H   0  0  0  0  0  0  0  0  0  0  0  0
  132.9838  124.9900  126.3966 H   0  0  0  0  0  0  0  0  0  0  0  0
  135.5965  122.5381  121.6395 H   0  0  0  0  0  0  0  0  0  0  0  0
  1  2  1  0
  2  3  1  0
  3  4  2  0
  3  5  1  0
  5  6  1  0
  6  7  2  0
  7  8  1  0
  8  9  2  0
  9 10  1  0
 10 11  1  0
 11 12  1  0
 12 13  1  0
 12 14  1  0
 14 15  1  0
 15 16  2  0
 16 17  1  0
 17 18  2  0
 18 19  1  0
 19 20  2  0
  9 21  1  0
 21  5  2  0
 20 15  1  0
  1 22  1  0
  1 23  1  0
  1 24  1  0
  6 25  1  0
  7 26  1  0
  8 27  1  0
 10 28  1  0
 10 29  1  0
 11 30  1  0
 11 31  1  0
 13 32  1  0
 13 33  1  0
 13 34  1  0
 14 35  1  0
 14 36  1  0
 16 37  1  0
 17 38  1  0
 18 39  1  0
 19 40  1  0
 20 41  1  0
 21 42  1  0
M  END
>  <meeko>  (1) 
{"is_sidechain": [false], "free_energy": -7.328, "intermolecular_energy": -10.326, "internal_energy": -2.497}

$$$$
seed-5302
     RDKit          3D

 42 43  0  0  0  0  0  0  0  0999 V2000
  130.0970  127.4750  128.3480 C   0  0  0  0  0  0  0  0  0  0  0  0
  130.4480  126.3500  127.5420 O   0  0  0  0  0  0  0  0  0  0  0  0
  131.4090  126.6130  126.6200 C   0  0  0  0  0  0  0  0  0  0  0  0
  132.0450  127.6510  126.5300 O   0  0  0  0  0  0  0  0  0  0  0  0
  131.5980  125.4500  125.7090 C   0  0  0  0  0  0  0  0  0  0  0  0
  131.3070  124.1370  126.0980 C   0  0  0  0  0  0  0  0  0  0  0  0
  131.4980  123.0840  125.2010 C   0  0  0  0  0  0  0  0  0  0  0  0
  131.9820  123.3360  123.9170 C   0  0  0  0  0  0  0  0  0  0  0  0
  132.2840  124.6430  123.5120 C   0  0  0  0  0  0  0  0  0  0  0  0
  132.7940  124.9170  122.1160 C   0  0  0  0  0  0  0  0  0  0  0  0
  134.2240  124.3940  121.8700 C   0  0  0  0  0  0  0  0  0  0  0  0
  135.2240  124.8720  122.8470 N   0  0  0  0  0  0  0  0  0  0  0  0
  136.0390  125.9570  122.2910 C   0  0  0  0  0  0  0  0  0  0  0  0
  136.0760  123.7520  123.2890 C   0  0  0  0  0  0  0  0  0  0  0  0
  135.5560  123.0550  124.5290 C   0  0  0  0  0  0  0  0  0  0  0  0
  135.3060  121.6760  124.5240 C   0  0  0  0  0  0  0  0  0  0  0  0
  134.8110  121.0420  125.6670 C   0  0  0  0  0  0  0  0  0  0  0  0
  134.5580  121.7820  126.8220 C   0  0  0  0  0  0  0  0  0  0  0  0
  134.7990  123.1540  126.8380 C   0  0  0  0  0  0  0  0  0  0  0  0
  135.2940  123.7880  125.6970 C   0  0  0  0  0  0  0  0  0  0  0  0
  132.0840  125.6960  124.4160 C   0  0  0  0  0  0  0  0  0  0  0  0
  130.1812  127.2050  129.4110 H   0  0  0  0  0  0  0  0  0  0  0  0
  130.7771  128.3109  128.1270 H   0  0  0  0  0  0  0  0  0  0  0  0
  129.0623  127.7759  128.1270 H   0  0  0  0  0  0  0  0  0  0  0  0
  130.9278  123.9348  127.1106 H   0  0  0  0  0  0  0  0  0  0  0  0
  131.2663  122.0533  125.5075 H   0  0  0  0  0  0  0  0  0  0  0  0
  132.1279  122.5009  123.2160 H   0  0  0  0  0  0  0  0  0  0  0  0
  132.1174  124.4324  121.3967 H   0  0  0  0  0  0  0  0  0  0  0  0
  132.8229  126.0094  121.9906 H   0  0  0  0  0  0  0  0  0  0  0  0
  134.2005  123.2950  121.9112 H   0  0  0  0  0  0  0  0  0  0  0  0
  134.5350  124.7791  120.8877 H   0  0  0  0  0  0  0  0  0  0  0  0
  136.4789  126.5427  123.1116 H   0  0  0  0  0  0  0  0  0  0  0  0
  136.8428  125.5317  121.6722 H   0  0  0  0  0  0  0  0  0  0  0  0
  135.4066  126.6105  121.6722 H   0  0  0  0  0  0  0  0  0  0  0  0
  136.1351  123.0158  122.4738 H   0  0  0  0  0  0  0  0  0  0  0  0
  137.0608  124.1723  123.5411 H   0  0  0  0  0  0  0  0  0  0  0  0
  135.5006  121.0887  123.6145 H   0  0  0  0  0  0  0  0  0  0  0  0
  134.6208  119.9586  125.6557 H   0  0  0  0  0  0  0  0  0  0  0  0
  134.1679  121.2819  127.7208 H   0  0  0  0  0  0  0  0  0  0  0  0
  134.5994  123.7373  127.7490 H   0  0  0  0  0  0  0  0  0  0  0  0
  135.4804  124.8720  125.7134 H   0  0  0  0  0  0  0  0  0  0  0  0
  132.3108  126.7273  124.1078 H   0  0  0  0  0  0  0  0  0  0  0  0
  1  2  1  0
  2  3  1  0
  3  4  2  0
  3  5  1  0
  5  6  1  0
  6  7  2  0
  7  8  1  0
  8  9  2  0
  9 10  1  0
 10 11  1  0
 11 12  1  0
 12 13  1  0
 12 14  1  0
 14 15  1  0
 15 16  2  0
 16 17  1  0
 17 18  2  0
 18 19  1  0
 19 20  2  0
  9 21  1  0
 21  5  2  0
 20 15  1  0
  1 22  1  0
  1 23  1  0
  1 24  1  0
  6 25  1  0
  7 26  1  0
  8 27  1  0
 10 28  1  0
 10 29  1  0
 11 30  1  0
 11 31  1  0
 13 32  1  0
 13 33  1  0
 13 34  1  0
 14 35  1  0
 14 36  1  0
 16 37  1  0
 17 38  1  0
 18 39  1  0
 19 40  1  0
 20 41  1  0
 21 42  1  0
M  END
>  <meeko>  (2) 
{"is_sidechain": [false], "free_energy": -7.298, "intermolecular_energy": -10.506, "internal_energy": -2.276}

$$$$
seed-5302
     RDKit          3D

 42 43  0  0  0  0  0  0  0  0999 V2000
  133.8130  123.9680  117.3490 C   0  0  0  0  0  0  0  0  0  0  0  0
  134.1860  124.8080  118.4410 O   0  0  0  0  0  0  0  0  0  0  0  0
  134.9680  124.1940  119.3650 C   0  0  0  0  0  0  0  0  0  0  0  0
  135.5890  123.1550  119.1970 O   0  0  0  0  0  0  0  0  0  0  0  0
  134.9780  124.9610  120.6410 C   0  0  0  0  0  0  0  0  0  0  0  0
  136.1570  125.4570  121.2100 C   0  0  0  0  0  0  0  0  0  0  0  0
  136.1080  126.1750  122.4070 C   0  0  0  0  0  0  0  0  0  0  0  0
  134.8850  126.3970  123.0410 C   0  0  0  0  0  0  0  0  0  0  0  0
  133.6950  125.9040  122.4890 C   0  0  0  0  0  0  0  0  0  0  0  0
  132.3690  126.1580  123.1690 C   0  0  0  0  0  0  0  0  0  0  0  0
  132.4370  126.0550  124.7060 C   0  0  0  0  0  0  0  0  0  0  0  0
  131.8940  124.7970  125.2580 N   0  0  0  0  0  0  0  0  0  0  0  0
  130.6320  125.0250  125.9680 C   0  0  0  0  0  0  0  0  0  0  0  0
  132.8870  124.1640  126.1480 C   0  0  0  0  0  0  0  0  0  0  0  0
  134.1150  123.6620  125.4150 C   0  0  0  0  0  0  0  0  0  0  0  0
  135.3980  124.0790  125.7970 C   0  0  0  0  0  0  0  0  0  0  0  0
  136.5240  123.6260  125.1070 C   0  0  0  0  0  0  0  0  0  0  0  0
  136.3790  122.7540  124.0280 C   0  0  0  0  0  0  0  0  0  0  0  0
  135.1090  122.3370  123.6360 C   0  0  0  0  0  0  0  0  0  0  0  0
  133.9820  122.7890  124.3250 C   0  0  0  0  0  0  0  0  0  0  0  0
  133.7510  125.1880  121.2850 C   0  0  0  0  0  0  0  0  0  0  0  0
  133.3952  123.0270  117.7363 H   0  0  0  0  0  0  0  0  0  0  0  0
  133.0573  124.4793  116.7346 H   0  0  0  0  0  0  0  0  0  0  0  0
  134.6990  123.7503  116.7346 H   0  0  0  0  0  0  0  0  0  0  0  0
  137.1229  125.2811  120.7139 H   0  0  0  0  0  0  0  0  0  0  0  0
  137.0354  126.5662  122.8508 H   0  0  0  0  0  0  0  0  0  0  0  0
  134.8546  126.9643  123.9829 H   0  0  0  0  0  0  0  0  0  0  0  0
  132.0290  127.1696  122.9024 H   0  0  0  0  0  0  0  0  0  0  0  0
  131.6732  125.3796  122.8228 H   0  0  0  0  0  0  0  0  0  0  0  0
  133.4909  126.1374  125.0100 H   0  0  0  0  0  0  0  0  0  0  0  0
  131.8112  126.8679  125.1030 H   0  0  0  0  0  0  0  0  0  0  0  0
  130.8107  124.9927  127.0529 H   0  0  0  0  0  0  0  0  0  0  0  0
  130.2288  126.0105  125.6919 H   0  0  0  0  0  0  0  0  0  0  0  0
  129.9095  124.2429  125.6919 H   0  0  0  0  0  0  0  0  0  0  0  0
  133.2057  124.9034  126.8975 H   0  0  0  0  0  0  0  0  0  0  0  0
  132.4022  123.2903  126.6079 H   0  0  0  0  0  0  0  0  0  0  0  0
  135.5182  124.7678  126.6462 H   0  0  0  0  0  0  0  0  0  0  0  0
  137.5268  123.9572  125.4147 H   0  0  0  0  0  0  0  0  0  0  0  0
  137.2672  122.3958  123.4869 H   0  0  0  0  0  0  0  0  0  0  0  0
  134.9941  121.6515  122.7835 H   0  0  0  0  0  0  0  0  0  0  0  0
  132.9813  122.4578  124.0105 H   0  0  0  0  0  0  0  0  0  0  0  0
  132.8232  124.7996  120.8397 H   0  0  0  0  0  0  0  0  0  0  0  0
  1  2  1  0
  2  3  1  0
  3  4  2  0
  3  5  1  0
  5  6  1  0
  6  7  2  0
  7  8  1  0
  8  9  2  0
  9 10  1  0
 10 11  1  0
 11 12  1  0
 12 13  1  0
 12 14  1  0
 14 15  1  0
 15 16  2  0
 16 17  1  0
 17 18  2  0
 18 19  1  0
 19 20  2  0
  9 21  1  0
 21  5  2  0
 20 15  1  0
  1 22  1  0
  1 23  1  0
  1 24  1  0
  6 25  1  0
  7 26  1  0
  8 27  1  0
 10 28  1  0
 10 29  1  0
 11 30  1  0
 11 31  1  0
 13 32  1  0
 13 33  1  0
 13 34  1  0
 14 35  1  0
 14 36  1  0
 16 37  1  0
 17 38  1  0
 18 39  1  0
 19 40  1  0
 20 41  1  0
 21 42  1  0
M  END
>  <meeko>  (3) 
{"is_sidechain": [false], "free_energy": -7.117, "intermolecular_energy": -10.2, "internal_energy": -2.326}

$$$$
seed-5302
     RDKit          3D

 42 43  0  0  0  0  0  0  0  0999 V2000
  131.2090  128.0370  127.8650 C   0  0  0  0  0  0  0  0  0  0  0  0
  131.5640  126.9470  127.0140 O   0  0  0  0  0  0  0  0  0  0  0  0
  131.2990  127.1650  125.7010 C   0  0  0  0  0  0  0  0  0  0  0  0
  130.7930  128.1740  125.2340 O   0  0  0  0  0  0  0  0  0  0  0  0
  131.7110  125.9940  124.8780 C   0  0  0  0  0  0  0  0  0  0  0  0
  131.6600  126.0050  123.4800 C   0  0  0  0  0  0  0  0  0  0  0  0
  132.0630  124.8810  122.7560 C   0  0  0  0  0  0  0  0  0  0  0  0
  132.5150  123.7430  123.4260 C   0  0  0  0  0  0  0  0  0  0  0  0
  132.5690  123.7120  124.8260 C   0  0  0  0  0  0  0  0  0  0  0  0
  133.0730  122.4840  125.5490 C   0  0  0  0  0  0  0  0  0  0  0  0
  134.3880  122.7210  126.3190 C   0  0  0  0  0  0  0  0  0  0  0  0
  135.6060  122.3220  125.5840 N   0  0  0  0  0  0  0  0  0  0  0  0
  136.4420  121.4220  126.3840 C   0  0  0  0  0  0  0  0  0  0  0  0
  136.3670  123.5190  125.1770 C   0  0  0  0  0  0  0  0  0  0  0  0
  136.1070  123.9360  123.7440 C   0  0  0  0  0  0  0  0  0  0  0  0
  135.9320  125.2860  123.4110 C   0  0  0  0  0  0  0  0  0  0  0  0
  135.6770  125.6620  122.0900 C   0  0  0  0  0  0  0  0  0  0  0  0
  135.5920  124.6930  121.0920 C   0  0  0  0  0  0  0  0  0  0  0  0
  135.7590  123.3470  121.4110 C   0  0  0  0  0  0  0  0  0  0  0  0
  136.0150  122.9700  122.7300 C   0  0  0  0  0  0  0  0  0  0  0  0
  132.1670  124.8460  125.5450 C   0  0  0  0  0  0  0  0  0  0  0  0
  131.3093  127.7292  128.9163 H   0  0  0  0  0  0  0  0  0  0  0  0
  131.8761  128.8890  127.6672 H   0  0  0  0  0  0  0  0  0  0  0  0
  130.1681  128.3327  127.6672 H   0  0  0  0  0  0  0  0  0  0  0  0
  131.3020  126.9002  122.9504 H   0  0  0  0  0  0  0  0  0  0  0  0
  132.0242  124.8924  121.6567 H   0  0  0  0  0  0  0  0  0  0  0  0
  132.8320  122.8616  122.8493 H   0  0  0  0  0  0  0  0  0  0  0  0
  132.3032  122.1611  126.2653 H   0  0  0  0  0  0  0  0  0  0  0  0
  133.2782  121.7197  124.7850 H   0  0  0  0  0  0  0  0  0  0  0  0
  134.4622  123.7936  126.5512 H   0  0  0  0  0  0  0  0  0  0  0  0
  134.3432  122.0896  127.2186 H   0  0  0  0  0  0  0  0  0  0  0  0
  136.2659  121.6116  127.4531 H   0  0  0  0  0  0  0  0  0  0  0  0
  136.1857  120.3783  126.1496 H   0  0  0  0  0  0  0  0  0  0  0  0
  137.5018  121.6008  126.1496 H   0  0  0  0  0  0  0  0  0  0  0  0
  136.0879  124.3519  125.8391 H   0  0  0  0  0  0  0  0  0  0  0  0
  137.4351  123.2678  125.2544 H   0  0  0  0  0  0  0  0  0  0  0  0
  135.9959  126.0548  124.1952 H   0  0  0  0  0  0  0  0  0  0  0  0
  135.5431  126.7242  121.8372 H   0  0  0  0  0  0  0  0  0  0  0  0
  135.3930  124.9909  120.0520 H   0  0  0  0  0  0  0  0  0  0  0  0
  135.6891  122.5820  120.6237 H   0  0  0  0  0  0  0  0  0  0  0  0
  136.1459  121.9062  122.9772 H   0  0  0  0  0  0  0  0  0  0  0  0
  132.2093  124.8363  126.6441 H   0  0  0  0  0  0  0  0  0  0  0  0
  1  2  1  0
  2  3  1  0
  3  4  2  0
  3  5  1  0
  5  6  1  0
  6  7  2  0
  7  8  1  0
  8  9  2  0
  9 10  1  0
 10 11  1  0
 11 12  1  0
 12 13  1  0
 12 14  1  0
 14 15  1  0
 15 16  2  0
 16 17  1  0
 17 18  2  0
 18 19  1  0
 19 20  2  0
  9 21  1  0
 21  5  2  0
 20 15  1  0
  1 22  1  0
  1 23  1  0
  1 24  1  0
  6 25  1  0
  7 26  1  0
  8 27  1  0
 10 28  1  0
 10 29  1  0
 11 30  1  0
 11 31  1  0
 13 32  1  0
 13 33  1  0
 13 34  1  0
 14 35  1  0
 14 36  1  0
 16 37  1  0
 17 38  1  0
 18 39  1  0
 19 40  1  0
 20 41  1  0
 21 42  1  0
M  END
>  <meeko>  (4) 
{"is_sidechain": [false], "free_energy": -6.721, "intermolecular_energy": -9.954, "internal_energy": -2.015}

$$$$
seed-5302
     RDKit          3D

 42 43  0  0  0  0  0  0  0  0999 V2000
  135.0190  121.0780  125.9490 C   0  0  0  0  0  0  0  0  0  0  0  0
  134.9820  121.3820  124.5540 O   0  0  0  0  0  0  0  0  0  0  0  0
  135.9020  122.2990  124.1650 C   0  0  0  0  0  0  0  0  0  0  0  0
  137.0360  122.4030  124.6070 O   0  0  0  0  0  0  0  0  0  0  0  0
  135.3480  123.1870  123.1060 C   0  0  0  0  0  0  0  0  0  0  0  0
  135.9410  123.3110  121.8440 C   0  0  0  0  0  0  0  0  0  0  0  0
  135.3760  124.1540  120.8850 C   0  0  0  0  0  0  0  0  0  0  0  0
  134.2210  124.8780  121.1830 C   0  0  0  0  0  0  0  0  0  0  0  0
  133.6160  124.7710  122.4430 C   0  0  0  0  0  0  0  0  0  0  0  0
  132.3560  125.5450  122.7590 C   0  0  0  0  0  0  0  0  0  0  0  0
  131.9460  125.4710  124.2430 C   0  0  0  0  0  0  0  0  0  0  0  0
  131.3870  126.7270  124.7850 N   0  0  0  0  0  0  0  0  0  0  0  0
  131.9430  127.0330  126.1070 C   0  0  0  0  0  0  0  0  0  0  0  0
  129.9150  126.6420  124.8440 C   0  0  0  0  0  0  0  0  0  0  0  0
  129.2200  127.6260  123.9240 C   0  0  0  0  0  0  0  0  0  0  0  0
  128.0940  127.2410  123.1830 C   0  0  0  0  0  0  0  0  0  0  0  0
  127.4690  128.1480  122.3250 C   0  0  0  0  0  0  0  0  0  0  0  0
  127.9640  129.4450  122.1970 C   0  0  0  0  0  0  0  0  0  0  0  0
  129.0840  129.8380  122.9250 C   0  0  0  0  0  0  0  0  0  0  0  0
  129.7110  128.9330  123.7840 C   0  0  0  0  0  0  0  0  0  0  0  0
  134.1860  123.9180  123.3980 C   0  0  0  0  0  0  0  0  0  0  0  0
  134.9061  122.0055  126.5295 H   0  0  0  0  0  0  0  0  0  0  0  0
  134.1981  120.3887  126.1959 H   0  0  0  0  0  0  0  0  0  0  0  0
  135.9813  120.6057  126.1959 H   0  0  0  0  0  0  0  0  0  0  0  0
  136.8532  122.7436  121.6076 H   0  0  0  0  0  0  0  0  0  0  0  0
  135.8421  124.2475  119.8930 H   0  0  0  0  0  0  0  0  0  0  0  0
  133.7810  125.5391  120.4219 H   0  0  0  0  0  0  0  0  0  0  0  0
  132.5200  126.6002  122.4951 H   0  0  0  0  0  0  0  0  0  0  0  0
  131.5419  125.0910  122.1749 H   0  0  0  0  0  0  0  0  0  0  0  0
  131.1875  124.6818  124.3515 H   0  0  0  0  0  0  0  0  0  0  0  0
  132.8641  125.2644  124.8125 H   0  0  0  0  0  0  0  0  0  0  0  0
  131.2629  126.6587  126.8864 H   0  0  0  0  0  0  0  0  0  0  0  0
  132.9246  126.5481  126.2131 H   0  0  0  0  0  0  0  0  0  0  0  0
  132.0585  128.1218  126.2131 H   0  0  0  0  0  0  0  0  0  0  0  0
  129.6124  125.6237  124.5586 H   0  0  0  0  0  0  0  0  0  0  0  0
  129.6154  126.8906  125.8728 H   0  0  0  0  0  0  0  0  0  0  0  0
  127.7005  126.2182  123.2781 H   0  0  0  0  0  0  0  0  0  0  0  0
  126.5844  127.8386  121.7490 H   0  0  0  0  0  0  0  0  0  0  0  0
  127.4697  130.1580  121.5208 H   0  0  0  0  0  0  0  0  0  0  0  0
  129.4748  130.8612  122.8235 H   0  0  0  0  0  0  0  0  0  0  0  0
  130.5969  129.2472  124.3554 H   0  0  0  0  0  0  0  0  0  0  0  0
  133.7170  123.8203  124.3882 H   0  0  0  0  0  0  0  0  0  0  0  0
  1  2  1  0
  2  3  1  0
  3  4  2  0
  3  5  1  0
  5  6  1  0
  6  7  2  0
  7  8  1  0
  8  9  2  0
  9 10  1  0
 10 11  1  0
 11 12  1  0
 12 13  1  0
 12 14  1  0
 14 15  1  0
 15 16  2  0
 16 17  1  0
 17 18  2  0
 18 19  1  0
 19 20  2  0
  9 21  1  0
 21  5  2  0
 20 15  1  0
  1 22  1  0
  1 23  1  0
  1 24  1  0
  6 25  1  0
  7 26  1  0
  8 27  1  0
 10 28  1  0
 10 29  1  0
 11 30  1  0
 11 31  1  0
 13 32  1  0
 13 33  1  0
 13 34  1  0
 14 35  1  0
 14 36  1  0
 16 37  1  0
 17 38  1  0
 18 39  1  0
 19 40  1  0
 20 41  1  0
 21 42  1  0
M  END
>  <meeko>  (5) 
{"is_sidechain": [false], "free_energy": -6.719, "intermolecular_energy": -11.371, "internal_energy": -0.595}

$$$$
seed-5302
     RDKit          3D

 42 43  0  0  0  0  0  0  0  0999 V2000
  134.7610  122.6130  116.4080 C   0  0  0  0  0  0  0  0  0  0  0  0
  135.2870  123.1920  117.6030 O   0  0  0  0  0  0  0  0  0  0  0  0
  134.5440  124.2160  118.0920 C   0  0  0  0  0  0  0  0  0  0  0  0
  133.7660  124.9040  117.4480 O   0  0  0  0  0  0  0  0  0  0  0  0
  134.7970  124.4030  119.5480 C   0  0  0  0  0  0  0  0  0  0  0  0
  135.9790  123.9770  120.1650 C   0  0  0  0  0  0  0  0  0  0  0  0
  136.1660  124.1810  121.5330 C   0  0  0  0  0  0  0  0  0  0  0  0
  135.1760  124.8090  122.2900 C   0  0  0  0  0  0  0  0  0  0  0  0
  133.9840  125.2380  121.6900 C   0  0  0  0  0  0  0  0  0  0  0  0
  132.9180  125.9310  122.5080 C   0  0  0  0  0  0  0  0  0  0  0  0
  133.1400  125.8180  124.0300 C   0  0  0  0  0  0  0  0  0  0  0  0
  131.9210  125.5040  124.8030 N   0  0  0  0  0  0  0  0  0  0  0  0
  130.9480  126.6000  124.7340 C   0  0  0  0  0  0  0  0  0  0  0  0
  132.2720  125.2040  126.2040 C   0  0  0  0  0  0  0  0  0  0  0  0
  132.9210  123.8470  126.3820 C   0  0  0  0  0  0  0  0  0  0  0  0
  134.2950  123.7370  126.6350 C   0  0  0  0  0  0  0  0  0  0  0  0
  134.8900  122.4820  126.7820 C   0  0  0  0  0  0  0  0  0  0  0  0
  134.1180  121.3260  126.6740 C   0  0  0  0  0  0  0  0  0  0  0  0
  132.7520  121.4220  126.4180 C   0  0  0  0  0  0  0  0  0  0  0  0
  132.1560  122.6750  126.2710 C   0  0  0  0  0  0  0  0  0  0  0  0
  133.8050  125.0330  120.3150 C   0  0  0  0  0  0  0  0  0  0  0  0
  134.0425  121.8221  116.6692 H   0  0  0  0  0  0  0  0  0  0  0  0
  134.2529  123.3894  115.8172 H   0  0  0  0  0  0  0  0  0  0  0  0
  135.5825  122.1816  115.8172 H   0  0  0  0  0  0  0  0  0  0  0  0
  136.7611  123.4811  119.5713 H   0  0  0  0  0  0  0  0  0  0  0  0
  137.0960  123.8460  122.0156 H   0  0  0  0  0  0  0  0  0  0  0  0
  135.3324  124.9688  123.3670 H   0  0  0  0  0  0  0  0  0  0  0  0
  132.9081  126.9967  122.2358 H   0  0  0  0  0  0  0  0  0  0  0  0
  131.9630  125.4339  122.2825 H   0  0  0  0  0  0  0  0  0  0  0  0
  133.8772  125.0222  124.2120 H   0  0  0  0  0  0  0  0  0  0  0  0
  133.4823  126.8060  124.3714 H   0  0  0  0  0  0  0  0  0  0  0  0
  130.6725  126.9104  125.7527 H   0  0  0  0  0  0  0  0  0  0  0  0
  131.3927  127.4519  124.1988 H   0  0  0  0  0  0  0  0  0  0  0  0
  130.0494  126.2594  124.1988 H   0  0  0  0  0  0  0  0  0  0  0  0
  132.9707  125.9747  126.5615 H   0  0  0  0  0  0  0  0  0  0  0  0
  131.3347  125.1948  126.7797 H   0  0  0  0  0  0  0  0  0  0  0  0
  134.9093  124.6457  126.7184 H   0  0  0  0  0  0  0  0  0  0  0  0
  135.9687  122.4055  126.9832 H   0  0  0  0  0  0  0  0  0  0  0  0
  134.5875  120.3381  126.7909 H   0  0  0  0  0  0  0  0  0  0  0  0
  132.1432  120.5099  126.3317 H   0  0  0  0  0  0  0  0  0  0  0  0
  131.0775  122.7452  126.0664 H   0  0  0  0  0  0  0  0  0  0  0  0
  132.8761  125.3699  119.8315 H   0  0  0  0  0  0  0  0  0  0  0  0
  1  2  1  0
  2  3  1  0
  3  4  2  0
  3  5  1  0
  5  6  1  0
  6  7  2  0
  7  8  1  0
  8  9  2  0
  9 10  1  0
 10 11  1  0
 11 12  1  0
 12 13  1  0
 12 14  1  0
 14 15  1  0
 15 16  2  0
 16 17  1  0
 17 18  2  0
 18 19  1  0
 19 20  2  0
  9 21  1  0
 21  5  2  0
 20 15  1  0
  1 22  1  0
  1 23  1  0
  1 24  1  0
  6 25  1  0
  7 26  1  0
  8 27  1  0
 10 28  1  0
 10 29  1  0
 11 30  1  0
 11 31  1  0
 13 32  1  0
 13 33  1  0
 13 34  1  0
 14 35  1  0
 14 36  1  0
 16 37  1  0
 17 38  1  0
 18 39  1  0
 19 40  1  0
 20 41  1  0
 21 42  1  0
M  END
>  <meeko>  (6) 
{"is_sidechain": [false], "free_energy": -6.613, "intermolecular_energy": -11.253, "internal_energy": -0.564}

$$$$
seed-5302
     RDKit          3D

 42 43  0  0  0  0  0  0  0  0999 V2000
  131.8960  128.9160  128.9610 C   0  0  0  0  0  0  0  0  0  0  0  0
  130.7520  128.0630  129.0090 O   0  0  0  0  0  0  0  0  0  0  0  0
  130.2130  127.7960  127.7930 C   0  0  0  0  0  0  0  0  0  0  0  0
  129.6670  128.6070  127.0620 O   0  0  0  0  0  0  0  0  0  0  0  0
  130.3750  126.3560  127.4490 C   0  0  0  0  0  0  0  0  0  0  0  0
  129.4360  125.3860  127.8190 C   0  0  0  0  0  0  0  0  0  0  0  0
  129.6350  124.0490  127.4660 C   0  0  0  0  0  0  0  0  0  0  0  0
  130.7700  123.6770  126.7460 C   0  0  0  0  0  0  0  0  0  0  0  0
  131.7230  124.6330  126.3700 C   0  0  0  0  0  0  0  0  0  0  0  0
  132.9450  124.2300  125.5770 C   0  0  0  0  0  0  0  0  0  0  0  0
  133.4400  125.3260  124.6110 C   0  0  0  0  0  0  0  0  0  0  0  0
  134.7600  125.0550  124.0060 N   0  0  0  0  0  0  0  0  0  0  0  0
  135.8400  125.2190  124.9840 C   0  0  0  0  0  0  0  0  0  0  0  0
  134.9720  125.9330  122.8400 C   0  0  0  0  0  0  0  0  0  0  0  0
  135.0240  125.1820  121.5240 C   0  0  0  0  0  0  0  0  0  0  0  0
  135.8140  124.0330  121.3860 C   0  0  0  0  0  0  0  0  0  0  0  0
  135.8690  123.3560  120.1660 C   0  0  0  0  0  0  0  0  0  0  0  0
  135.1390  123.8220  119.0730 C   0  0  0  0  0  0  0  0  0  0  0  0
  134.3540  124.9660  119.1970 C   0  0  0  0  0  0  0  0  0  0  0  0
  134.2970  125.6440  120.4160 C   0  0  0  0  0  0  0  0  0  0  0  0
  131.5140  125.9730  126.7240 C   0  0  0  0  0  0  0  0  0  0  0  0
  132.2177  129.1559  129.9852 H   0  0  0  0  0  0  0  0  0  0  0  0
  132.7127  128.4046  128.4304 H   0  0  0  0  0  0  0  0  0  0  0  0
  131.6389  129.8447  128.4304 H   0  0  0  0  0  0  0  0  0  0  0  0
  128.5407  125.6767  128.3882 H   0  0  0  0  0  0  0  0  0  0  0  0
  128.8952  123.2885  127.7564 H   0  0  0  0  0  0  0  0  0  0  0  0
  130.9186  122.6225  126.4705 H   0  0  0  0  0  0  0  0  0  0  0  0
  133.7559  123.9951  126.2822 H   0  0  0  0  0  0  0  0  0  0  0  0
  132.6613  123.3620  124.9638 H   0  0  0  0  0  0  0  0  0  0  0  0
  132.7040  125.4277  123.7998 H   0  0  0  0  0  0  0  0  0  0  0  0
  133.5503  126.2438  125.2073 H   0  0  0  0  0  0  0  0  0  0  0  0
  135.4262  125.1562  126.0012 H   0  0  0  0  0  0  0  0  0  0  0  0
  136.5869  124.4240  124.8422 H   0  0  0  0  0  0  0  0  0  0  0  0
  136.3172  126.1999  124.8422 H   0  0  0  0  0  0  0  0  0  0  0  0
  134.1467  126.6589  122.7951 H   0  0  0  0  0  0  0  0  0  0  0  0
  135.9481  126.4221  122.9742 H   0  0  0  0  0  0  0  0  0  0  0  0
  136.3942  123.6621  122.2438 H   0  0  0  0  0  0  0  0  0  0  0  0
  136.4895  122.4531  120.0669 H   0  0  0  0  0  0  0  0  0  0  0  0
  135.1831  123.2864  118.1132 H   0  0  0  0  0  0  0  0  0  0  0  0
  133.7792  125.3350  118.3347 H   0  0  0  0  0  0  0  0  0  0  0  0
  133.6771  126.5479  120.5089 H   0  0  0  0  0  0  0  0  0  0  0  0
  132.2519  126.7339  126.4299 H   0  0  0  0  0  0  0  0  0  0  0  0
  1  2  1  0
  2  3  1  0
  3  4  2  0
  3  5  1  0
  5  6  1  0
  6  7  2  0
  7  8  1  0
  8  9  2  0
  9 10  1  0
 10 11  1  0
 11 12  1  0
 12 13  1  0
 12 14  1  0
 14 15  1  0
 15 16  2  0
 16 17  1  0
 17 18  2  0
 18 19  1  0
 19 20  2  0
  9 21  1  0
 21  5  2  0
 20 15  1  0
  1 22  1  0
  1 23  1  0
  1 24  1  0
  6 25  1  0
  7 26  1  0
  8 27  1  0
 10 28  1  0
 10 29  1  0
 11 30  1  0
 11 31  1  0
 13 32  1  0
 13 33  1  0
 13 34  1  0
 14 35  1  0
 14 36  1  0
 16 37  1  0
 17 38  1  0
 18 39  1  0
 19 40  1  0
 20 41  1  0
 21 42  1  0
M  END
>  <meeko>  (7) 
{"is_sidechain": [false], "free_energy": -6.522, "intermolecular_energy": -11.218, "internal_energy": -0.47}

$$$$
seed-5302
     RDKit          3D

 42 43  0  0  0  0  0  0  0  0999 V2000
  134.9630  122.2640  116.1200 C   0  0  0  0  0  0  0  0  0  0  0  0
  135.4370  123.3680  116.8910 O   0  0  0  0  0  0  0  0  0  0  0  0
  134.5200  123.8680  117.7570 C   0  0  0  0  0  0  0  0  0  0  0  0
  133.4050  124.2700  117.4620 O   0  0  0  0  0  0  0  0  0  0  0  0
  135.0530  123.8680  119.1480 C   0  0  0  0  0  0  0  0  0  0  0  0
  136.0390  122.9690  119.5740 C   0  0  0  0  0  0  0  0  0  0  0  0
  136.5060  123.0160  120.8890 C   0  0  0  0  0  0  0  0  0  0  0  0
  135.9910  123.9550  121.7820 C   0  0  0  0  0  0  0  0  0  0  0  0
  135.0010  124.8600  121.3760 C   0  0  0  0  0  0  0  0  0  0  0  0
  134.4550  125.8870  122.3410 C   0  0  0  0  0  0  0  0  0  0  0  0
  134.2500  125.3410  123.7680 C   0  0  0  0  0  0  0  0  0  0  0  0
  135.2390  125.8250  124.7540 N   0  0  0  0  0  0  0  0  0  0  0  0
  135.9950  126.9690  124.2340 C   0  0  0  0  0  0  0  0  0  0  0  0
  136.1480  124.7290  125.1400 C   0  0  0  0  0  0  0  0  0  0  0  0
  135.4250  123.4420  125.4820 C   0  0  0  0  0  0  0  0  0  0  0  0
  135.7800  122.2350  124.8650 C   0  0  0  0  0  0  0  0  0  0  0  0
  135.0980  121.0560  125.1730 C   0  0  0  0  0  0  0  0  0  0  0  0
  134.0540  121.0730  126.0980 C   0  0  0  0  0  0  0  0  0  0  0  0
  133.6890  122.2680  126.7140 C   0  0  0  0  0  0  0  0  0  0  0  0
  134.3700  123.4470  126.4080 C   0  0  0  0  0  0  0  0  0  0  0  0
  134.5400  124.8100  120.0530 C   0  0  0  0  0  0  0  0  0  0  0  0
  134.6203  121.4658  116.7948 H   0  0  0  0  0  0  0  0  0  0  0  0
  134.1264  122.5921  115.4856 H   0  0  0  0  0  0  0  0  0  0  0  0
  135.7770  121.8834  115.4856 H   0  0  0  0  0  0  0  0  0  0  0  0
  136.4456  122.2258  118.8724 H   0  0  0  0  0  0  0  0  0  0  0  0
  137.2819  122.3107  121.2213 H   0  0  0  0  0  0  0  0  0  0  0  0
  136.3657  123.9857  122.8158 H   0  0  0  0  0  0  0  0  0  0  0  0
  135.1602  126.7298  122.3885 H   0  0  0  0  0  0  0  0  0  0  0  0
  133.4668  126.1910  121.9655 H   0  0  0  0  0  0  0  0  0  0  0  0
  133.2482  125.6398  124.1102 H   0  0  0  0  0  0  0  0  0  0  0  0
  134.3743  124.2497  123.7078 H   0  0  0  0  0  0  0  0  0  0  0  0
  136.3868  127.5618  125.0737 H   0  0  0  0  0  0  0  0  0  0  0  0
  136.8320  126.6065  123.6191 H   0  0  0  0  0  0  0  0  0  0  0  0
  135.3333  127.5968  123.6191 H   0  0  0  0  0  0  0  0  0  0  0  0
  136.8331  124.5324  124.3022 H   0  0  0  0  0  0  0  0  0  0  0  0
  136.6821  125.0528  126.0455 H   0  0  0  0  0  0  0  0  0  0  0  0
  136.6012  122.2161  124.1333 H   0  0  0  0  0  0  0  0  0  0  0  0
  135.3845  120.1125  124.6855 H   0  0  0  0  0  0  0  0  0  0  0  0
  133.5191  120.1430  126.3410 H   0  0  0  0  0  0  0  0  0  0  0  0
  132.8641  122.2822  127.4415 H   0  0  0  0  0  0  0  0  0  0  0  0
  134.0776  124.3882  126.8965 H   0  0  0  0  0  0  0  0  0  0  0  0
  133.7666  125.5179  119.7201 H   0  0  0  0  0  0  0  0  0  0  0  0
  1  2  1  0
  2  3  1  0
  3  4  2  0
  3  5  1  0
  5  6  1  0
  6  7  2  0
  7  8  1  0
  8  9  2  0
  9 10  1  0
 10 11  1  0
 11 12  1  0
 12 13  1  0
 12 14  1  0
 14 15  1  0
 15 16  2  0
 16 17  1  0
 17 18  2  0
 18 19  1  0
 19 20  2  0
  9 21  1  0
 21  5  2  0
 20 15  1  0
  1 22  1  0
  1 23  1  0
  1 24  1  0
  6 25  1  0
  7 26  1  0
  8 27  1  0
 10 28  1  0
 10 29  1  0
 11 30  1  0
 11 31  1  0
 13 32  1  0
 13 33  1  0
 13 34  1  0
 14 35  1  0
 14 36  1  0
 16 37  1  0
 17 38  1  0
 18 39  1  0
 19 40  1  0
 20 41  1  0
 21 42  1  0
M  END
>  <meeko>  (8) 
{"is_sidechain": [false], "free_energy": -6.508, "intermolecular_energy": -11.074, "internal_energy": -0.595}

$$$$
seed-5302
     RDKit          3D

 42 43  0  0  0  0  0  0  0  0999 V2000
  128.5610  127.2570  123.7260 C   0  0  0  0  0  0  0  0  0  0  0  0
  128.7940  126.3650  124.8170 O   0  0  0  0  0  0  0  0  0  0  0  0
  129.7090  126.8160  125.7110 C   0  0  0  0  0  0  0  0  0  0  0  0
  129.6380  127.8630  126.3360 O   0  0  0  0  0  0  0  0  0  0  0  0
  130.8380  125.8540  125.8410 C   0  0  0  0  0  0  0  0  0  0  0  0
  130.7260  124.6570  126.5580 C   0  0  0  0  0  0  0  0  0  0  0  0
  131.8160  123.7890  126.6440 C   0  0  0  0  0  0  0  0  0  0  0  0
  133.0200  124.1120  126.0170 C   0  0  0  0  0  0  0  0  0  0  0  0
  133.1530  125.3080  125.2980 C   0  0  0  0  0  0  0  0  0  0  0  0
  134.4530  125.6490  124.6070 C   0  0  0  0  0  0  0  0  0  0  0  0
  134.4590  125.3060  123.1040 C   0  0  0  0  0  0  0  0  0  0  0  0
  135.7510  124.7970  122.6000 N   0  0  0  0  0  0  0  0  0  0  0  0
  136.1550  125.4880  121.3710 C   0  0  0  0  0  0  0  0  0  0  0  0
  135.6700  123.3400  122.3790 C   0  0  0  0  0  0  0  0  0  0  0  0
  135.6700  122.5370  123.6630 C   0  0  0  0  0  0  0  0  0  0  0  0
  136.7400  122.6270  124.5640 C   0  0  0  0  0  0  0  0  0  0  0  0
  136.7410  121.8710  125.7390 C   0  0  0  0  0  0  0  0  0  0  0  0
  135.6760  121.0170  126.0210 C   0  0  0  0  0  0  0  0  0  0  0  0
  134.6090  120.9150  125.1310 C   0  0  0  0  0  0  0  0  0  0  0  0
  134.6060  121.6700  123.9570 C   0  0  0  0  0  0  0  0  0  0  0  0
  132.0520  126.1720  125.2130 C   0  0  0  0  0  0  0  0  0  0  0  0
  128.3010  128.2524  124.1153 H   0  0  0  0  0  0  0  0  0  0  0  0
  129.4703  127.3298  123.1112 H   0  0  0  0  0  0  0  0  0  0  0  0
  127.7323  126.8758  123.1112 H   0  0  0  0  0  0  0  0  0  0  0  0
  129.7784  124.4001  127.0541 H   0  0  0  0  0  0  0  0  0  0  0  0
  131.7255  122.8485  127.2072 H   0  0  0  0  0  0  0  0  0  0  0  0
  133.8732  123.4213  126.0876 H   0  0  0  0  0  0  0  0  0  0  0  0
  134.6339  126.7283  124.7185 H   0  0  0  0  0  0  0  0  0  0  0  0
  135.2396  125.0430  125.0803 H   0  0  0  0  0  0  0  0  0  0  0  0
  133.6924  124.5381  122.9232 H   0  0  0  0  0  0  0  0  0  0  0  0
  134.2600  126.2450  122.5666 H   0  0  0  0  0  0  0  0  0  0  0  0
  136.6946  126.4110  121.6297 H   0  0  0  0  0  0  0  0  0  0  0  0
  136.8120  124.8323  120.7808 H   0  0  0  0  0  0  0  0  0  0  0  0
  135.2613  125.7389  120.7808 H   0  0  0  0  0  0  0  0  0  0  0  0
  134.7417  123.1214  121.8308 H   0  0  0  0  0  0  0  0  0  0  0  0
  136.5659  123.0468  121.8121 H   0  0  0  0  0  0  0  0  0  0  0  0
  137.5843  123.2971  124.3446 H   0  0  0  0  0  0  0  0  0  0  0  0
  137.5831  121.9498  126.4423 H   0  0  0  0  0  0  0  0  0  0  0  0
  135.6780  120.4232  126.9469 H   0  0  0  0  0  0  0  0  0  0  0  0
  133.7695  120.2399  125.3533 H   0  0  0  0  0  0  0  0  0  0  0  0
  133.7625  121.5848  123.2561 H   0  0  0  0  0  0  0  0  0  0  0  0
  132.1410  127.1109  124.6469 H   0  0  0  0  0  0  0  0  0  0  0  0
  1  2  1  0
  2  3  1  0
  3  4  2  0
  3  5  1  0
  5  6  1  0
  6  7  2  0
  7  8  1  0
  8  9  2  0
  9 10  1  0
 10 11  1  0
 11 12  1  0
 12 13  1  0
 12 14  1  0
 14 15  1  0
 15 16  2  0
 16 17  1  0
 17 18  2  0
 18 19  1  0
 19 20  2  0
  9 21  1  0
 21  5  2  0
 20 15  1  0
  1 22  1  0
  1 23  1  0
  1 24  1  0
  6 25  1  0
  7 26  1  0
  8 27  1  0
 10 28  1  0
 10 29  1  0
 11 30  1  0
 11 31  1  0
 13 32  1  0
 13 33  1  0
 13 34  1  0
 14 35  1  0
 14 36  1  0
 16 37  1  0
 17 38  1  0
 18 39  1  0
 19 40  1  0
 20 41  1  0
 21 42  1  0
M  END
>  <meeko>  (9) 
{"is_sidechain": [false], "free_energy": -6.48, "intermolecular_energy": -10.38, "internal_energy": -1.25}

$$$$
seed-5302
     RDKit          3D

 42 43  0  0  0  0  0  0  0  0999 V2000
  135.2190  121.0010  125.5350 C   0  0  0  0  0  0  0  0  0  0  0  0
  134.6400  121.9570  126.4230 O   0  0  0  0  0  0  0  0  0  0  0  0
  133.3050  122.1300  126.2520 C   0  0  0  0  0  0  0  0  0  0  0  0
  132.4360  121.3320  126.5690 O   0  0  0  0  0  0  0  0  0  0  0  0
  133.0210  123.4450  125.6150 C   0  0  0  0  0  0  0  0  0  0  0  0
  132.8460  124.6180  126.3580 C   0  0  0  0  0  0  0  0  0  0  0  0
  132.5860  125.8270  125.7090 C   0  0  0  0  0  0  0  0  0  0  0  0
  132.4970  125.8680  124.3170 C   0  0  0  0  0  0  0  0  0  0  0  0
  132.6640  124.7040  123.5550 C   0  0  0  0  0  0  0  0  0  0  0  0
  132.5820  124.7530  122.0470 C   0  0  0  0  0  0  0  0  0  0  0  0
  133.8810  124.3080  121.3460 C   0  0  0  0  0  0  0  0  0  0  0  0
  134.6120  125.3980  120.6670 N   0  0  0  0  0  0  0  0  0  0  0  0
  134.5580  125.2500  119.2090 C   0  0  0  0  0  0  0  0  0  0  0  0
  136.0100  125.4390  121.1370 C   0  0  0  0  0  0  0  0  0  0  0  0
  136.1340  125.5270  122.6450 C   0  0  0  0  0  0  0  0  0  0  0  0
  136.0080  126.7570  123.3040 C   0  0  0  0  0  0  0  0  0  0  0  0
  136.1400  126.8330  124.6920 C   0  0  0  0  0  0  0  0  0  0  0  0
  136.4020  125.6800  125.4330 C   0  0  0  0  0  0  0  0  0  0  0  0
  136.5330  124.4520  124.7890 C   0  0  0  0  0  0  0  0  0  0  0  0
  136.4010  124.3750  123.4010 C   0  0  0  0  0  0  0  0  0  0  0  0
  132.9300  123.4950  124.2150 C   0  0  0  0  0  0  0  0  0  0  0  0
  135.7019  120.2036  126.1189 H   0  0  0  0  0  0  0  0  0  0  0  0
  134.4324  120.5661  124.9009 H   0  0  0  0  0  0  0  0  0  0  0  0
  135.9688  121.4966  124.9009 H   0  0  0  0  0  0  0  0  0  0  0  0
  132.9134  124.5877  127.4555 H   0  0  0  0  0  0  0  0  0  0  0  0
  132.4513  126.7477  126.2956 H   0  0  0  0  0  0  0  0  0  0  0  0
  132.2936  126.8241  123.8126 H   0  0  0  0  0  0  0  0  0  0  0  0
  131.7661  124.0912  121.7209 H   0  0  0  0  0  0  0  0  0  0  0  0
  132.4057  125.8019  121.7663 H   0  0  0  0  0  0  0  0  0  0  0  0
  134.5464  123.8665  122.1025 H   0  0  0  0  0  0  0  0  0  0  0  0
  133.5867  123.5925  120.5641 H   0  0  0  0  0  0  0  0  0  0  0  0
  134.1911  124.2444  118.9559 H   0  0  0  0  0  0  0  0  0  0  0  0
  133.8775  126.0052  118.7887 H   0  0  0  0  0  0  0  0  0  0  0  0
  135.5649  125.3895  118.7887 H   0  0  0  0  0  0  0  0  0  0  0  0
  136.5192  124.5249  120.7977 H   0  0  0  0  0  0  0  0  0  0  0  0
  136.4673  126.3481  120.7193 H   0  0  0  0  0  0  0  0  0  0  0  0
  135.8037  127.6691  122.7240 H   0  0  0  0  0  0  0  0  0  0  0  0
  136.0374  127.8024  125.2016 H   0  0  0  0  0  0  0  0  0  0  0  0
  136.5051  125.7410  126.5265 H   0  0  0  0  0  0  0  0  0  0  0  0
  136.7403  123.5434  125.3734 H   0  0  0  0  0  0  0  0  0  0  0  0
  136.5071  123.4036  122.8960 H   0  0  0  0  0  0  0  0  0  0  0  0
  133.0690  122.5749  123.6283 H   0  0  0  0  0  0  0  0  0  0  0  0
  1  2  1  0
  2  3  1  0
  3  4  2  0
  3  5  1  0
  5  6  1  0
  6  7  2  0
  7  8  1  0
  8  9  2  0
  9 10  1  0
 10 11  1  0
 11 12  1  0
 12 13  1  0
 12 14  1  0
 14 15  1  0
 15 16  2  0
 16 17  1  0
 17 18  2  0
 18 19  1  0
 19 20  2  0
  9 21  1  0
 21  5  2  0
 20 15  1  0
  1 22  1  0
  1 23  1  0
  1 24  1  0
  6 25  1  0
  7 26  1  0
  8 27  1  0
 10 28  1  0
 10 29  1  0
 11 30  1  0
 11 31  1  0
 13 32  1  0
 13 33  1  0
 13 34  1  0
 14 35  1  0
 14 36  1  0
 16 37  1  0
 17 38  1  0
 18 39  1  0
 19 40  1  0
 20 41  1  0
 21 42  1  0
M  END
>  <meeko>  (10) 
{"is_sidechain": [false], "free_energy": -6.411, "intermolecular_energy": -9.244, "internal_energy": -2.288}

$$$$
seed-5302
     RDKit          3D

 42 43  0  0  0  0  0  0  0  0999 V2000
  129.7030  128.7000  124.8070 C   0  0  0  0  0  0  0  0  0  0  0  0
  129.9070  127.4380  125.4430 O   0  0  0  0  0  0  0  0  0  0  0  0
  131.2110  127.1400  125.6680 C   0  0  0  0  0  0  0  0  0  0  0  0
  131.9690  127.7630  126.3950 O   0  0  0  0  0  0  0  0  0  0  0  0
  131.6150  125.9280  124.9020 C   0  0  0  0  0  0  0  0  0  0  0  0
  131.5550  124.6400  125.4480 C   0  0  0  0  0  0  0  0  0  0  0  0
  131.9420  123.5380  124.6830 C   0  0  0  0  0  0  0  0  0  0  0  0
  132.3920  123.7170  123.3740 C   0  0  0  0  0  0  0  0  0  0  0  0
  132.4630  124.9990  122.8120 C   0  0  0  0  0  0  0  0  0  0  0  0
  132.9360  125.1900  121.3900 C   0  0  0  0  0  0  0  0  0  0  0  0
  134.1050  126.1860  121.2590 C   0  0  0  0  0  0  0  0  0  0  0  0
  135.2230  125.7090  120.4180 N   0  0  0  0  0  0  0  0  0  0  0  0
  134.8810  124.4580  119.7350 C   0  0  0  0  0  0  0  0  0  0  0  0
  136.4380  125.5430  121.2380 C   0  0  0  0  0  0  0  0  0  0  0  0
  136.2130  124.7050  122.4810 C   0  0  0  0  0  0  0  0  0  0  0  0
  136.0830  123.3130  122.3920 C   0  0  0  0  0  0  0  0  0  0  0  0
  135.8590  122.5490  123.5400 C   0  0  0  0  0  0  0  0  0  0  0  0
  135.7610  123.1700  124.7850 C   0  0  0  0  0  0  0  0  0  0  0  0
  135.8840  124.5540  124.8850 C   0  0  0  0  0  0  0  0  0  0  0  0
  136.1080  125.3190  123.7390 C   0  0  0  0  0  0  0  0  0  0  0  0
  132.0680  126.1000  123.5850 C   0  0  0  0  0  0  0  0  0  0  0  0
  129.5769  129.4801  125.5722 H   0  0  0  0  0  0  0  0  0  0  0  0
  130.5741  128.9394  124.1794 H   0  0  0  0  0  0  0  0  0  0  0  0
  128.8008  128.6527  124.1794 H   0  0  0  0  0  0  0  0  0  0  0  0
  131.2028  124.4963  126.4801 H   0  0  0  0  0  0  0  0  0  0  0  0
  131.8921  122.5267  125.1128 H   0  0  0  0  0  0  0  0  0  0  0  0
  132.6939  122.8434  122.7776 H   0  0  0  0  0  0  0  0  0  0  0  0
  133.2633  124.2157  120.9982 H   0  0  0  0  0  0  0  0  0  0  0  0
  132.0913  125.6062  120.8214 H   0  0  0  0  0  0  0  0  0  0  0  0
  133.7165  127.1164  120.8192 H   0  0  0  0  0  0  0  0  0  0  0  0
  134.5119  126.3270  122.2712 H   0  0  0  0  0  0  0  0  0  0  0  0
  134.6680  123.6789  120.4818 H   0  0  0  0  0  0  0  0  0  0  0  0
  133.9928  124.6150  119.1053 H   0  0  0  0  0  0  0  0  0  0  0  0
  135.7255  124.1413  119.1053 H   0  0  0  0  0  0  0  0  0  0  0  0
  137.2099  125.0562  120.6238 H   0  0  0  0  0  0  0  0  0  0  0  0
  136.7449  126.5451  121.5720 H   0  0  0  0  0  0  0  0  0  0  0  0
  136.1577  122.8185  121.4123 H   0  0  0  0  0  0  0  0  0  0  0  0
  135.7598  121.4563  123.4619 H   0  0  0  0  0  0  0  0  0  0  0  0
  135.5866  122.5668  125.6882 H   0  0  0  0  0  0  0  0  0  0  0  0
  135.8046  125.0439  125.8667 H   0  0  0  0  0  0  0  0  0  0  0  0
  136.2030  126.4117  123.8224 H   0  0  0  0  0  0  0  0  0  0  0  0
  132.1137  127.1110  123.1539 H   0  0  0  0  0  0  0  0  0  0  0  0
  1  2  1  0
  2  3  1  0
  3  4  2  0
  3  5  1  0
  5  6  1  0
  6  7  2  0
  7  8  1  0
  8  9  2  0
  9 10  1  0
 10 11  1  0
 11 12  1  0
 12 13  1  0
 12 14  1  0
 14 15  1  0
 15 16  2  0
 16 17  1  0
 17 18  2  0
 18 19  1  0
 19 20  2  0
  9 21  1  0
 21  5  2  0
 20 15  1  0
  1 22  1  0
  1 23  1  0
  1 24  1  0
  6 25  1  0
  7 26  1  0
  8 27  1  0
 10 28  1  0
 10 29  1  0
 11 30  1  0
 11 31  1  0
 13 32  1  0
 13 33  1  0
 13 34  1  0
 14 35  1  0
 14 36  1  0
 16 37  1  0
 17 38  1  0
 18 39  1  0
 19 40  1  0
 20 41  1  0
 21 42  1  0
M  END
>  <meeko>  (11) 
{"is_sidechain": [false], "free_energy": -6.408, "intermolecular_energy": -10.083, "internal_energy": -1.445}

$$$$
seed-5302
     RDKit          3D

 42 43  0  0  0  0  0  0  0  0999 V2000
  135.2620  123.6340  118.8900 C   0  0  0  0  0  0  0  0  0  0  0  0
  134.7150  124.4730  119.9080 O   0  0  0  0  0  0  0  0  0  0  0  0
  135.5810  124.7530  120.9140 C   0  0  0  0  0  0  0  0  0  0  0  0
  136.5410  125.5040  120.8400 O   0  0  0  0  0  0  0  0  0  0  0  0
  135.2090  124.0130  122.1520 C   0  0  0  0  0  0  0  0  0  0  0  0
  135.9280  122.9030  122.6080 C   0  0  0  0  0  0  0  0  0  0  0  0
  135.5380  122.2490  123.7790 C   0  0  0  0  0  0  0  0  0  0  0  0
  134.4280  122.7000  124.4950 C   0  0  0  0  0  0  0  0  0  0  0  0
  133.6930  123.8070  124.0520 C   0  0  0  0  0  0  0  0  0  0  0  0
  132.5000  124.3030  124.8370 C   0  0  0  0  0  0  0  0  0  0  0  0
  131.6020  125.2740  124.0440 C   0  0  0  0  0  0  0  0  0  0  0  0
  131.3660  126.5700  124.7130 N   0  0  0  0  0  0  0  0  0  0  0  0
  132.1500  126.6850  125.9470 C   0  0  0  0  0  0  0  0  0  0  0  0
  129.9270  126.7410  124.9900 C   0  0  0  0  0  0  0  0  0  0  0  0
  129.2290  127.6490  123.9980 C   0  0  0  0  0  0  0  0  0  0  0  0
  129.6520  128.9720  123.8160 C   0  0  0  0  0  0  0  0  0  0  0  0
  128.9930  129.8080  122.9110 C   0  0  0  0  0  0  0  0  0  0  0  0
  127.9040  129.3290  122.1830 C   0  0  0  0  0  0  0  0  0  0  0  0
  127.4710  128.0170  122.3580 C   0  0  0  0  0  0  0  0  0  0  0  0
  128.1290  127.1800  123.2620 C   0  0  0  0  0  0  0  0  0  0  0  0
  134.0940  124.4610  122.8780 C   0  0  0  0  0  0  0  0  0  0  0  0
  135.8062  122.7993  119.3560 H   0  0  0  0  0  0  0  0  0  0  0  0
  134.4482  123.2377  118.2650 H   0  0  0  0  0  0  0  0  0  0  0  0
  135.9529  124.2187  118.2650 H   0  0  0  0  0  0  0  0  0  0  0  0
  136.8016  122.5448  122.0437 H   0  0  0  0  0  0  0  0  0  0  0  0
  136.1061  121.3778  124.1372 H   0  0  0  0  0  0  0  0  0  0  0  0
  134.1273  122.1806  125.4169 H   0  0  0  0  0  0  0  0  0  0  0  0
  131.8947  123.4346  125.1361 H   0  0  0  0  0  0  0  0  0  0  0  0
  132.8906  124.8577  125.7029 H   0  0  0  0  0  0  0  0  0  0  0  0
  132.0803  125.4699  123.0730 H   0  0  0  0  0  0  0  0  0  0  0  0
  130.6205  124.7867  123.9475 H   0  0  0  0  0  0  0  0  0  0  0  0
  131.4826  126.5871  126.8159 H   0  0  0  0  0  0  0  0  0  0  0  0
  132.9081  125.8884  125.9754 H   0  0  0  0  0  0  0  0  0  0  0  0
  132.6474  127.6657  125.9754 H   0  0  0  0  0  0  0  0  0  0  0  0
  129.4454  125.7526  124.9573 H   0  0  0  0  0  0  0  0  0  0  0  0
  129.8398  127.2123  125.9801 H   0  0  0  0  0  0  0  0  0  0  0  0
  130.5088  129.3553  124.3895 H   0  0  0  0  0  0  0  0  0  0  0  0
  129.3333  130.8448  122.7725 H   0  0  0  0  0  0  0  0  0  0  0  0
  127.3868  129.9880  121.4701 H   0  0  0  0  0  0  0  0  0  0  0  0
  126.6113  127.6401  121.7846 H   0  0  0  0  0  0  0  0  0  0  0  0
  127.7827  126.1449  123.3985 H   0  0  0  0  0  0  0  0  0  0  0  0
  133.5285  125.3348  122.5220 H   0  0  0  0  0  0  0  0  0  0  0  0
  1  2  1  0
  2  3  1  0
  3  4  2  0
  3  5  1  0
  5  6  1  0
  6  7  2  0
  7  8  1  0
  8  9  2  0
  9 10  1  0
 10 11  1  0
 11 12  1  0
 12 13  1  0
 12 14  1  0
 14 15  1  0
 15 16  2  0
 16 17  1  0
 17 18  2  0
 18 19  1  0
 19 20  2  0
  9 21  1  0
 21  5  2  0
 20 15  1  0
  1 22  1  0
  1 23  1  0
  1 24  1  0
  6 25  1  0
  7 26  1  0
  8 27  1  0
 10 28  1  0
 10 29  1  0
 11 30  1  0
 11 31  1  0
 13 32  1  0
 13 33  1  0
 13 34  1  0
 14 35  1  0
 14 36  1  0
 16 37  1  0
 17 38  1  0
 18 39  1  0
 19 40  1  0
 20 41  1  0
 21 42  1  0
M  END
>  <meeko>  (12) 
{"is_sidechain": [false], "free_energy": -6.338, "intermolecular_energy": -10.857, "internal_energy": -0.572}

$$$$
seed-5302
     RDKit          3D

 42 43  0  0  0  0  0  0  0  0999 V2000
  131.8700  128.9720  129.0780 C   0  0  0  0  0  0  0  0  0  0  0  0
  131.6780  127.8780  128.1810 O   0  0  0  0  0  0  0  0  0  0  0  0
  130.3780  127.5290  128.0090 C   0  0  0  0  0  0  0  0  0  0  0  0
  129.5630  127.3540  128.9010 O   0  0  0  0  0  0  0  0  0  0  0  0
  130.0590  127.3820  126.5610 C   0  0  0  0  0  0  0  0  0  0  0  0
  128.8020  127.6990  126.0340 C   0  0  0  0  0  0  0  0  0  0  0  0
  128.5580  127.5470  124.6680 C   0  0  0  0  0  0  0  0  0  0  0  0
  129.5660  127.0770  123.8250 C   0  0  0  0  0  0  0  0  0  0  0  0
  130.8290  126.7490  124.3350 C   0  0  0  0  0  0  0  0  0  0  0  0
  131.9240  126.2540  123.4180 C   0  0  0  0  0  0  0  0  0  0  0  0
  132.6350  124.9880  123.9380 C   0  0  0  0  0  0  0  0  0  0  0  0
  134.0790  124.9300  123.6310 N   0  0  0  0  0  0  0  0  0  0  0  0
  134.8890  125.2930  124.7980 C   0  0  0  0  0  0  0  0  0  0  0  0
  134.3890  125.8080  122.4860 C   0  0  0  0  0  0  0  0  0  0  0  0
  134.6730  125.0470  121.2060 C   0  0  0  0  0  0  0  0  0  0  0  0
  134.2640  125.5540  119.9660 C   0  0  0  0  0  0  0  0  0  0  0  0
  134.5140  124.8400  118.7920 C   0  0  0  0  0  0  0  0  0  0  0  0
  135.1730  123.6120  118.8480 C   0  0  0  0  0  0  0  0  0  0  0  0
  135.5800  123.0950  120.0760 C   0  0  0  0  0  0  0  0  0  0  0  0
  135.3310  123.8080  121.2500 C   0  0  0  0  0  0  0  0  0  0  0  0
  131.0680  126.9090  125.7070 C   0  0  0  0  0  0  0  0  0  0  0  0
  131.8067  128.6112  130.1152 H   0  0  0  0  0  0  0  0  0  0  0  0
  132.8602  129.4186  128.9050 H   0  0  0  0  0  0  0  0  0  0  0  0
  131.0910  129.7291  128.9050 H   0  0  0  0  0  0  0  0  0  0  0  0
  128.0055  128.0683  126.6967 H   0  0  0  0  0  0  0  0  0  0  0  0
  127.5697  127.7981  124.2554 H   0  0  0  0  0  0  0  0  0  0  0  0
  129.3669  126.9629  122.7492 H   0  0  0  0  0  0  0  0  0  0  0  0
  131.4808  126.0266  122.4372 H   0  0  0  0  0  0  0  0  0  0  0  0
  132.6813  127.0496  123.3587 H   0  0  0  0  0  0  0  0  0  0  0  0
  132.5136  124.9494  125.0306 H   0  0  0  0  0  0  0  0  0  0  0  0
  132.1701  124.1333  123.4247 H   0  0  0  0  0  0  0  0  0  0  0  0
  134.3383  125.0462  125.7177 H   0  0  0  0  0  0  0  0  0  0  0  0
  135.8355  124.7330  124.7759 H   0  0  0  0  0  0  0  0  0  0  0  0
  135.1009  126.3722  124.7759 H   0  0  0  0  0  0  0  0  0  0  0  0
  133.5300  126.4730  122.3134 H   0  0  0  0  0  0  0  0  0  0  0  0
  135.3013  126.3669  122.7418 H   0  0  0  0  0  0  0  0  0  0  0  0
  133.7423  126.5212  119.9165 H   0  0  0  0  0  0  0  0  0  0  0  0
  134.1909  125.2465  117.8223 H   0  0  0  0  0  0  0  0  0  0  0  0
  135.3714  123.0517  117.9224 H   0  0  0  0  0  0  0  0  0  0  0  0
  136.0974  122.1253  120.1205 H   0  0  0  0  0  0  0  0  0  0  0  0
  135.6531  123.3954  122.2175 H   0  0  0  0  0  0  0  0  0  0  0  0
  132.0573  126.6611  126.1192 H   0  0  0  0  0  0  0  0  0  0  0  0
  1  2  1  0
  2  3  1  0
  3  4  2  0
  3  5  1  0
  5  6  1  0
  6  7  2  0
  7  8  1  0
  8  9  2  0
  9 10  1  0
 10 11  1  0
 11 12  1  0
 12 13  1  0
 12 14  1  0
 14 15  1  0
 15 16  2  0
 16 17  1  0
 17 18  2  0
 18 19  1  0
 19 20  2  0
  9 21  1  0
 21  5  2  0
 20 15  1  0
  1 22  1  0
  1 23  1  0
  1 24  1  0
  6 25  1  0
  7 26  1  0
  8 27  1  0
 10 28  1  0
 10 29  1  0
 11 30  1  0
 11 31  1  0
 13 32  1  0
 13 33  1  0
 13 34  1  0
 14 35  1  0
 14 36  1  0
 16 37  1  0
 17 38  1  0
 18 39  1  0
 19 40  1  0
 20 41  1  0
 21 42  1  0
M  END
>  <meeko>  (13) 
{"is_sidechain": [false], "free_energy": -6.26, "intermolecular_energy": -10.673, "internal_energy": -0.647}

$$$$
seed-5302
     RDKit          3D

 42 43  0  0  0  0  0  0  0  0999 V2000
  136.9500  125.4750  125.0270 C   0  0  0  0  0  0  0  0  0  0  0  0
  135.9220  124.8900  124.2270 O   0  0  0  0  0  0  0  0  0  0  0  0
  135.8960  123.5340  124.2700 C   0  0  0  0  0  0  0  0  0  0  0  0
  136.7300  122.7890  123.7800 O   0  0  0  0  0  0  0  0  0  0  0  0
  134.6950  123.0530  125.0080 C   0  0  0  0  0  0  0  0  0  0  0  0
  134.6440  121.7950  125.6200 C   0  0  0  0  0  0  0  0  0  0  0  0
  133.4950  121.3960  126.3040 C   0  0  0  0  0  0  0  0  0  0  0  0
  132.3920  122.2480  126.3760 C   0  0  0  0  0  0  0  0  0  0  0  0
  132.4210  123.5080  125.7650 C   0  0  0  0  0  0  0  0  0  0  0  0
  131.2310  124.4360  125.8560 C   0  0  0  0  0  0  0  0  0  0  0  0
  131.5420  125.7660  126.5720 C   0  0  0  0  0  0  0  0  0  0  0  0
  130.5480  126.8330  126.3350 N   0  0  0  0  0  0  0  0  0  0  0  0
  129.9270  127.2710  127.5900 C   0  0  0  0  0  0  0  0  0  0  0  0
  129.5240  126.3680  125.3800 C   0  0  0  0  0  0  0  0  0  0  0  0
  129.1110  127.4300  124.3800 C   0  0  0  0  0  0  0  0  0  0  0  0
  128.0720  127.1910  123.4700 C   0  0  0  0  0  0  0  0  0  0  0  0
  127.7070  128.1680  122.5410 C   0  0  0  0  0  0  0  0  0  0  0  0
  128.3790  129.3890  122.5110 C   0  0  0  0  0  0  0  0  0  0  0  0
  129.4160  129.6370  123.4070 C   0  0  0  0  0  0  0  0  0  0  0  0
  129.7820  128.6620  124.3370 C   0  0  0  0  0  0  0  0  0  0  0  0
  133.5820  123.9040  125.0840 C   0  0  0  0  0  0  0  0  0  0  0  0
  136.7090  125.3378  126.0915 H   0  0  0  0  0  0  0  0  0  0  0  0
  137.9107  124.9883  124.8029 H   0  0  0  0  0  0  0  0  0  0  0  0
  137.0222  126.5495  124.8029 H   0  0  0  0  0  0  0  0  0  0  0  0
  135.5107  121.1202  125.5616 H   0  0  0  0  0  0  0  0  0  0  0  0
  133.4586  120.4085  126.7872 H   0  0  0  0  0  0  0  0  0  0  0  0
  131.4905  121.9267  126.9182 H   0  0  0  0  0  0  0  0  0  0  0  0
  130.8867  124.6618  124.8360 H   0  0  0  0  0  0  0  0  0  0  0  0
  130.4628  123.9201  126.4507 H   0  0  0  0  0  0  0  0  0  0  0  0
  131.5874  125.5721  127.6538 H   0  0  0  0  0  0  0  0  0  0  0  0
  132.4959  126.1284  126.1613 H   0  0  0  0  0  0  0  0  0  0  0  0
  130.4968  126.8691  128.4408 H   0  0  0  0  0  0  0  0  0  0  0  0
  129.9270  128.3701  127.6351 H   0  0  0  0  0  0  0  0  0  0  0  0
  128.8917  126.9022  127.6351 H   0  0  0  0  0  0  0  0  0  0  0  0
  129.9271  125.5063  124.8278 H   0  0  0  0  0  0  0  0  0  0  0  0
  128.6297  126.1044  125.9637 H   0  0  0  0  0  0  0  0  0  0  0  0
  127.5408  126.2279  123.4876 H   0  0  0  0  0  0  0  0  0  0  0  0
  126.8884  127.9738  121.8323 H   0  0  0  0  0  0  0  0  0  0  0  0
  128.0899  130.1574  121.7789 H   0  0  0  0  0  0  0  0  0  0  0  0
  129.9464  130.6004  123.3820 H   0  0  0  0  0  0  0  0  0  0  0  0
  130.6029  128.8610  125.0417 H   0  0  0  0  0  0  0  0  0  0  0  0
  133.6201  124.8931  124.6041 H   0  0  0  0  0  0  0  0  0  0  0  0
  1  2  1  0
  2  3  1  0
  3  4  2  0
  3  5  1  0
  5  6  1  0
  6  7  2  0
  7  8  1  0
  8  9  2  0
  9 10  1  0
 10 11  1  0
 11 12  1  0
 12 13  1  0
 12 14  1  0
 14 15  1  0
 15 16  2  0
 16 17  1  0
 17 18  2  0
 18 19  1  0
 19 20  2  0
  9 21  1  0
 21  5  2  0
 20 15  1  0
  1 22  1  0
  1 23  1  0
  1 24  1  0
  6 25  1  0
  7 26  1  0
  8 27  1  0
 10 28  1  0
 10 29  1  0
 11 30  1  0
 11 31  1  0
 13 32  1  0
 13 33  1  0
 13 34  1  0
 14 35  1  0
 14 36  1  0
 16 37  1  0
 17 38  1  0
 18 39  1  0
 19 40  1  0
 20 41  1  0
 21 42  1  0
M  END
>  <meeko>  (14) 
{"is_sidechain": [false], "free_energy": -6.238, "intermolecular_energy": -10.744, "internal_energy": -0.543}

$$$$
seed-5302
     RDKit          3D

 42 43  0  0  0  0  0  0  0  0999 V2000
  130.0910  125.5110  127.4880 C   0  0  0  0  0  0  0  0  0  0  0  0
  131.1370  124.9240  126.7130 O   0  0  0  0  0  0  0  0  0  0  0  0
  131.1560  123.5680  126.7510 C   0  0  0  0  0  0  0  0  0  0  0  0
  130.3170  122.8580  127.2820 O   0  0  0  0  0  0  0  0  0  0  0  0
  132.3570  123.0380  126.0470 C   0  0  0  0  0  0  0  0  0  0  0  0
  133.1620  122.0300  126.5900 C   0  0  0  0  0  0  0  0  0  0  0  0
  134.2740  121.5660  125.8850 C   0  0  0  0  0  0  0  0  0  0  0  0
  134.5870  122.1080  124.6370 C   0  0  0  0  0  0  0  0  0  0  0  0
  133.7960  123.1210  124.0790 C   0  0  0  0  0  0  0  0  0  0  0  0
  134.1290  123.6960  122.7210 C   0  0  0  0  0  0  0  0  0  0  0  0
  135.6380  123.9180  122.5010 C   0  0  0  0  0  0  0  0  0  0  0  0
  135.9710  124.6840  121.2820 N   0  0  0  0  0  0  0  0  0  0  0  0
  136.5980  125.9680  121.6130 C   0  0  0  0  0  0  0  0  0  0  0  0
  134.7590  124.8900  120.4660 C   0  0  0  0  0  0  0  0  0  0  0  0
  134.7050  124.0050  119.2370 C   0  0  0  0  0  0  0  0  0  0  0  0
  134.0630  124.4390  118.0700 C   0  0  0  0  0  0  0  0  0  0  0  0
  134.0030  123.6120  116.9460 C   0  0  0  0  0  0  0  0  0  0  0  0
  134.5820  122.3440  116.9800 C   0  0  0  0  0  0  0  0  0  0  0  0
  135.2200  121.9000  118.1360 C   0  0  0  0  0  0  0  0  0  0  0  0
  135.2800  122.7250  119.2600 C   0  0  0  0  0  0  0  0  0  0  0  0
  132.6780  123.5780  124.7920 C   0  0  0  0  0  0  0  0  0  0  0  0
  130.3133  125.3863  128.5581 H   0  0  0  0  0  0  0  0  0  0  0  0
  130.0166  126.5827  127.2515 H   0  0  0  0  0  0  0  0  0  0  0  0
  129.1375  125.0162  127.2515 H   0  0  0  0  0  0  0  0  0  0  0  0
  132.9181  121.6027  127.5738 H   0  0  0  0  0  0  0  0  0  0  0  0
  134.9042  120.7726  126.3132 H   0  0  0  0  0  0  0  0  0  0  0  0
  135.4635  121.7360  124.0862 H   0  0  0  0  0  0  0  0  0  0  0  0
  133.7630  123.0022  121.9498 H   0  0  0  0  0  0  0  0  0  0  0  0
  133.6444  124.6816  122.6591 H   0  0  0  0  0  0  0  0  0  0  0  0
  136.0357  124.4635  123.3695 H   0  0  0  0  0  0  0  0  0  0  0  0
  136.0873  122.9215  122.3781 H   0  0  0  0  0  0  0  0  0  0  0  0
  136.6521  126.0787  122.7061 H   0  0  0  0  0  0  0  0  0  0  0  0
  137.6132  126.0000  121.1906 H   0  0  0  0  0  0  0  0  0  0  0  0
  135.9990  126.7882  121.1906 H   0  0  0  0  0  0  0  0  0  0  0  0
  133.8782  124.6759  121.0892 H   0  0  0  0  0  0  0  0  0  0  0  0
  134.7760  125.9326  120.1157 H   0  0  0  0  0  0  0  0  0  0  0  0
  133.6031  125.4377  118.0386 H   0  0  0  0  0  0  0  0  0  0  0  0
  133.4985  123.9614  116.0331 H   0  0  0  0  0  0  0  0  0  0  0  0
  134.5350  121.6941  116.0938 H   0  0  0  0  0  0  0  0  0  0  0  0
  135.6763  120.8995  118.1629 H   0  0  0  0  0  0  0  0  0  0  0  0
  135.7822  122.3690  120.1716 H   0  0  0  0  0  0  0  0  0  0  0  0
  132.0454  124.3688  124.3626 H   0  0  0  0  0  0  0  0  0  0  0  0
  1  2  1  0
  2  3  1  0
  3  4  2  0
  3  5  1  0
  5  6  1  0
  6  7  2  0
  7  8  1  0
  8  9  2  0
  9 10  1  0
 10 11  1  0
 11 12  1  0
 12 13  1  0
 12 14  1  0
 14 15  1  0
 15 16  2  0
 16 17  1  0
 17 18  2  0
 18 19  1  0
 19 20  2  0
  9 21  1  0
 21  5  2  0
 20 15  1  0
  1 22  1  0
  1 23  1  0
  1 24  1  0
  6 25  1  0
  7 26  1  0
  8 27  1  0
 10 28  1  0
 10 29  1  0
 11 30  1  0
 11 31  1  0
 13 32  1  0
 13 33  1  0
 13 34  1  0
 14 35  1  0
 14 36  1  0
 16 37  1  0
 17 38  1  0
 18 39  1  0
 19 40  1  0
 20 41  1  0
 21 42  1  0
M  END
>  <meeko>  (15) 
{"is_sidechain": [false], "free_energy": -6.211, "intermolecular_energy": -10.781, "internal_energy": -0.469}

$$$$
seed-5302
     RDKit          3D

 42 43  0  0  0  0  0  0  0  0999 V2000
  131.5650  128.1140  127.6860 C   0  0  0  0  0  0  0  0  0  0  0  0
  130.7820  127.0140  127.2210 O   0  0  0  0  0  0  0  0  0  0  0  0
  130.5350  127.0410  125.8870 C   0  0  0  0  0  0  0  0  0  0  0  0
  129.9230  127.9150  125.2920 O   0  0  0  0  0  0  0  0  0  0  0  0
  131.1170  125.8440  125.2190 C   0  0  0  0  0  0  0  0  0  0  0  0
  131.0650  124.5670  125.7890 C   0  0  0  0  0  0  0  0  0  0  0  0
  131.6230  123.4770  125.1160 C   0  0  0  0  0  0  0  0  0  0  0  0
  132.2350  123.6600  123.8760 C   0  0  0  0  0  0  0  0  0  0  0  0
  132.3010  124.9310  123.2910 C   0  0  0  0  0  0  0  0  0  0  0  0
  132.9510  125.1240  121.9400 C   0  0  0  0  0  0  0  0  0  0  0  0
  134.4920  125.1290  121.9950 C   0  0  0  0  0  0  0  0  0  0  0  0
  135.1210  123.8550  121.5900 N   0  0  0  0  0  0  0  0  0  0  0  0
  135.9610  123.3090  122.6610 C   0  0  0  0  0  0  0  0  0  0  0  0
  135.9050  124.0470  120.3560 C   0  0  0  0  0  0  0  0  0  0  0  0
  135.4410  123.1750  119.2070 C   0  0  0  0  0  0  0  0  0  0  0  0
  135.4890  121.7780  119.3030 C   0  0  0  0  0  0  0  0  0  0  0  0
  135.0740  120.9800  118.2340 C   0  0  0  0  0  0  0  0  0  0  0  0
  134.6110  121.5710  117.0590 C   0  0  0  0  0  0  0  0  0  0  0  0
  134.5630  122.9590  116.9500 C   0  0  0  0  0  0  0  0  0  0  0  0
  134.9770  123.7580  118.0170 C   0  0  0  0  0  0  0  0  0  0  0  0
  131.7340  126.0190  123.9710 C   0  0  0  0  0  0  0  0  0  0  0  0
  131.5702  128.1213  128.7860 H   0  0  0  0  0  0  0  0  0  0  0  0
  132.5957  128.0132  127.3151 H   0  0  0  0  0  0  0  0  0  0  0  0
  131.1323  129.0548  127.3151 H   0  0  0  0  0  0  0  0  0  0  0  0
  130.5844  124.4212  126.7677 H   0  0  0  0  0  0  0  0  0  0  0  0
  131.5796  122.4735  125.5645 H   0  0  0  0  0  0  0  0  0  0  0  0
  132.6706  122.7966  123.3517 H   0  0  0  0  0  0  0  0  0  0  0  0
  132.6287  124.3065  121.2784 H   0  0  0  0  0  0  0  0  0  0  0  0
  132.6369  126.1101  121.5673 H   0  0  0  0  0  0  0  0  0  0  0  0
  134.8576  125.9214  121.3254 H   0  0  0  0  0  0  0  0  0  0  0  0
  134.7682  125.2952  123.0467 H   0  0  0  0  0  0  0  0  0  0  0  0
  135.5360  123.5853  123.6372 H   0  0  0  0  0  0  0  0  0  0  0  0
  135.9990  122.2131  122.5745 H   0  0  0  0  0  0  0  0  0  0  0  0
  136.9780  123.7191  122.5745 H   0  0  0  0  0  0  0  0  0  0  0  0
  135.8216  125.1003  120.0502 H   0  0  0  0  0  0  0  0  0  0  0  0
  136.9427  123.7609  120.5825 H   0  0  0  0  0  0  0  0  0  0  0  0
  135.8560  121.3063  120.2265 H   0  0  0  0  0  0  0  0  0  0  0  0
  135.1126  119.8840  118.3194 H   0  0  0  0  0  0  0  0  0  0  0  0
  134.2837  120.9415  116.2184 H   0  0  0  0  0  0  0  0  0  0  0  0
  134.1987  123.4254  116.0228 H   0  0  0  0  0  0  0  0  0  0  0  0
  134.9394  124.8535  117.9248 H   0  0  0  0  0  0  0  0  0  0  0  0
  131.7735  127.0217  123.5204 H   0  0  0  0  0  0  0  0  0  0  0  0
  1  2  1  0
  2  3  1  0
  3  4  2  0
  3  5  1  0
  5  6  1  0
  6  7  2  0
  7  8  1  0
  8  9  2  0
  9 10  1  0
 10 11  1  0
 11 12  1  0
 12 13  1  0
 12 14  1  0
 14 15  1  0
 15 16  2  0
 16 17  1  0
 17 18  2  0
 18 19  1  0
 19 20  2  0
  9 21  1  0
 21  5  2  0
 20 15  1  0
  1 22  1  0
  1 23  1  0
  1 24  1  0
  6 25  1  0
  7 26  1  0
  8 27  1  0
 10 28  1  0
 10 29  1  0
 11 30  1  0
 11 31  1  0
 13 32  1  0
 13 33  1  0
 13 34  1  0
 14 35  1  0
 14 36  1  0
 16 37  1  0
 17 38  1  0
 18 39  1  0
 19 40  1  0
 20 41  1  0
 21 42  1  0
M  END
>  <meeko>  (16) 
{"is_sidechain": [false], "free_energy": -6.145, "intermolecular_energy": -10.571, "internal_energy": -0.585}

$$$$
seed-5302
     RDKit          3D

 42 43  0  0  0  0  0  0  0  0999 V2000
  128.0000  125.5210  128.9350 C   0  0  0  0  0  0  0  0  0  0  0  0
  128.8620  124.8610  128.0080 O   0  0  0  0  0  0  0  0  0  0  0  0
  129.8340  125.6580  127.4970 C   0  0  0  0  0  0  0  0  0  0  0  0
  129.8560  126.8790  127.5470 O   0  0  0  0  0  0  0  0  0  0  0  0
  130.9000  124.8430  126.8520 C   0  0  0  0  0  0  0  0  0  0  0  0
  130.8800  123.4430  126.8560 C   0  0  0  0  0  0  0  0  0  0  0  0
  131.9030  122.7270  126.2310 C   0  0  0  0  0  0  0  0  0  0  0  0
  132.9500  123.4040  125.6040 C   0  0  0  0  0  0  0  0  0  0  0  0
  132.9890  124.8050  125.5940 C   0  0  0  0  0  0  0  0  0  0  0  0
  134.1160  125.5380  124.9010 C   0  0  0  0  0  0  0  0  0  0  0  0
  135.2770  124.6170  124.4750 C   0  0  0  0  0  0  0  0  0  0  0  0
  136.4540  125.3300  123.9350 N   0  0  0  0  0  0  0  0  0  0  0  0
  137.1650  126.0620  124.9880 C   0  0  0  0  0  0  0  0  0  0  0  0
  136.0400  126.2420  122.8520 C   0  0  0  0  0  0  0  0  0  0  0  0
  135.6490  125.5220  121.5770 C   0  0  0  0  0  0  0  0  0  0  0  0
  134.5350  125.9350  120.8340 C   0  0  0  0  0  0  0  0  0  0  0  0
  134.1700  125.2560  119.6690 C   0  0  0  0  0  0  0  0  0  0  0  0
  134.9130  124.1570  119.2390 C   0  0  0  0  0  0  0  0  0  0  0  0
  136.0190  123.7340  119.9720 C   0  0  0  0  0  0  0  0  0  0  0  0
  136.3850  124.4110  121.1360 C   0  0  0  0  0  0  0  0  0  0  0  0
  131.9560  125.5170  126.2190 C   0  0  0  0  0  0  0  0  0  0  0  0
  128.3133  125.2811  129.9618 H   0  0  0  0  0  0  0  0  0  0  0  0
  128.0573  126.6083  128.7787 H   0  0  0  0  0  0  0  0  0  0  0  0
  126.9652  125.1821  128.7787 H   0  0  0  0  0  0  0  0  0  0  0  0
  130.0576  122.9066  127.3520 H   0  0  0  0  0  0  0  0  0  0  0  0
  131.8836  121.6272  126.2329 H   0  0  0  0  0  0  0  0  0  0  0  0
  133.7519  122.8329  125.1132 H   0  0  0  0  0  0  0  0  0  0  0  0
  133.7124  126.0281  124.0027 H   0  0  0  0  0  0  0  0  0  0  0  0
  134.5241  126.2613  125.6224 H   0  0  0  0  0  0  0  0  0  0  0  0
  135.5981  124.0389  125.3540 H   0  0  0  0  0  0  0  0  0  0  0  0
  134.8933  123.9828  123.6622 H   0  0  0  0  0  0  0  0  0  0  0  0
  136.8239  125.7108  125.9730 H   0  0  0  0  0  0  0  0  0  0  0  0
  138.2465  125.8864  124.8904 H   0  0  0  0  0  0  0  0  0  0  0  0
  136.9580  127.1379  124.8904 H   0  0  0  0  0  0  0  0  0  0  0  0
  135.1769  126.8282  123.2004 H   0  0  0  0  0  0  0  0  0  0  0  0
  136.9052  126.8783  122.6140 H   0  0  0  0  0  0  0  0  0  0  0  0
  133.9440  126.7996  121.1703 H   0  0  0  0  0  0  0  0  0  0  0  0
  133.2957  125.5885  119.0903 H   0  0  0  0  0  0  0  0  0  0  0  0
  134.6254  123.6241  118.3207 H   0  0  0  0  0  0  0  0  0  0  0  0
  136.6041  122.8662  119.6334 H   0  0  0  0  0  0  0  0  0  0  0  0
  137.2577  124.0712  121.7129 H   0  0  0  0  0  0  0  0  0  0  0  0
  131.9731  126.6169  126.2133 H   0  0  0  0  0  0  0  0  0  0  0  0
  1  2  1  0
  2  3  1  0
  3  4  2  0
  3  5  1  0
  5  6  1  0
  6  7  2  0
  7  8  1  0
  8  9  2  0
  9 10  1  0
 10 11  1  0
 11 12  1  0
 12 13  1  0
 12 14  1  0
 14 15  1  0
 15 16  2  0
 16 17  1  0
 17 18  2  0
 18 19  1  0
 19 20  2  0
  9 21  1  0
 21  5  2  0
 20 15  1  0
  1 22  1  0
  1 23  1  0
  1 24  1  0
  6 25  1  0
  7 26  1  0
  8 27  1  0
 10 28  1  0
 10 29  1  0
 11 30  1  0
 11 31  1  0
 13 32  1  0
 13 33  1  0
 13 34  1  0
 14 35  1  0
 14 36  1  0
 16 37  1  0
 17 38  1  0
 18 39  1  0
 19 40  1  0
 20 41  1  0
 21 42  1  0
M  END
>  <meeko>  (17) 
{"is_sidechain": [false], "free_energy": -6.069, "intermolecular_energy": -10.452, "internal_energy": -0.598}

$$$$
seed-5302
     RDKit          3D

 42 43  0  0  0  0  0  0  0  0999 V2000
  131.9770  128.7130  129.2290 C   0  0  0  0  0  0  0  0  0  0  0  0
  130.9740  128.9200  128.2340 O   0  0  0  0  0  0  0  0  0  0  0  0
  130.1410  127.8620  128.0640 C   0  0  0  0  0  0  0  0  0  0  0  0
  129.6220  127.2120  128.9580 O   0  0  0  0  0  0  0  0  0  0  0  0
  129.9310  127.5840  126.6160 C   0  0  0  0  0  0  0  0  0  0  0  0
  128.7000  127.7910  125.9830 C   0  0  0  0  0  0  0  0  0  0  0  0
  128.5600  127.5190  124.6210 C   0  0  0  0  0  0  0  0  0  0  0  0
  129.6440  127.0360  123.8880 C   0  0  0  0  0  0  0  0  0  0  0  0
  130.8830  126.8170  124.5050 C   0  0  0  0  0  0  0  0  0  0  0  0
  132.0610  126.3080  123.7070 C   0  0  0  0  0  0  0  0  0  0  0  0
  131.8920  124.8550  123.2200 C   0  0  0  0  0  0  0  0  0  0  0  0
  132.4650  123.8370  124.1250 N   0  0  0  0  0  0  0  0  0  0  0  0
  131.4410  123.2730  125.0100 C   0  0  0  0  0  0  0  0  0  0  0  0
  133.5700  124.4220  124.9090 C   0  0  0  0  0  0  0  0  0  0  0  0
  134.5330  123.3860  125.4530 C   0  0  0  0  0  0  0  0  0  0  0  0
  135.3980  122.6920  124.5950 C   0  0  0  0  0  0  0  0  0  0  0  0
  136.2710  121.7260  125.1020 C   0  0  0  0  0  0  0  0  0  0  0  0
  136.2860  121.4450  126.4670 C   0  0  0  0  0  0  0  0  0  0  0  0
  135.4290  122.1250  127.3290 C   0  0  0  0  0  0  0  0  0  0  0  0
  134.5550  123.0900  126.8250 C   0  0  0  0  0  0  0  0  0  0  0  0
  131.0180  127.0980  125.8720 C   0  0  0  0  0  0  0  0  0  0  0  0
  131.5268  128.8059  130.2283 H   0  0  0  0  0  0  0  0  0  0  0  0
  132.4069  127.7072  129.1126 H   0  0  0  0  0  0  0  0  0  0  0  0
  132.7700  129.4664  129.1126 H   0  0  0  0  0  0  0  0  0  0  0  0
  127.8423  128.1683  126.5592 H   0  0  0  0  0  0  0  0  0  0  0  0
  127.5926  127.6859  124.1247 H   0  0  0  0  0  0  0  0  0  0  0  0
  129.5251  126.8249  122.8150 H   0  0  0  0  0  0  0  0  0  0  0  0
  132.1928  126.9566  122.8284 H   0  0  0  0  0  0  0  0  0  0  0  0
  132.9357  126.3261  124.3738 H   0  0  0  0  0  0  0  0  0  0  0  0
  130.8165  124.6518  123.1107 H   0  0  0  0  0  0  0  0  0  0  0  0
  132.4421  124.7762  122.2707 H   0  0  0  0  0  0  0  0  0  0  0  0
  131.7332  123.4340  126.0582 H   0  0  0  0  0  0  0  0  0  0  0  0
  130.4775  123.7677  124.8179 H   0  0  0  0  0  0  0  0  0  0  0  0
  131.3441  122.1943  124.8179 H   0  0  0  0  0  0  0  0  0  0  0  0
  134.1297  125.1131  124.2616 H   0  0  0  0  0  0  0  0  0  0  0  0
  133.1211  124.9347  125.7725 H   0  0  0  0  0  0  0  0  0  0  0  0
  135.3893  122.9093  123.5167 H   0  0  0  0  0  0  0  0  0  0  0  0
  136.9474  121.1865  124.4228 H   0  0  0  0  0  0  0  0  0  0  0  0
  136.9754  120.6853  126.8640 H   0  0  0  0  0  0  0  0  0  0  0  0
  135.4408  121.9019  128.4061 H   0  0  0  0  0  0  0  0  0  0  0  0
  133.8779  123.6229  127.5088 H   0  0  0  0  0  0  0  0  0  0  0  0
  131.9867  126.9358  126.3673 H   0  0  0  0  0  0  0  0  0  0  0  0
  1  2  1  0
  2  3  1  0
  3  4  2  0
  3  5  1  0
  5  6  1  0
  6  7  2  0
  7  8  1  0
  8  9  2  0
  9 10  1  0
 10 11  1  0
 11 12  1  0
 12 13  1  0
 12 14  1  0
 14 15  1  0
 15 16  2  0
 16 17  1  0
 17 18  2  0
 18 19  1  0
 19 20  2  0
  9 21  1  0
 21  5  2  0
 20 15  1  0
  1 22  1  0
  1 23  1  0
  1 24  1  0
  6 25  1  0
  7 26  1  0
  8 27  1  0
 10 28  1  0
 10 29  1  0
 11 30  1  0
 11 31  1  0
 13 32  1  0
 13 33  1  0
 13 34  1  0
 14 35  1  0
 14 36  1  0
 16 37  1  0
 17 38  1  0
 18 39  1  0
 19 40  1  0
 20 41  1  0
 21 42  1  0
M  END
>  <meeko>  (18) 
{"is_sidechain": [false], "free_energy": -5.98, "intermolecular_energy": -10.255, "internal_energy": -0.669}

$$$$
seed-5302
     RDKit          3D

 42 43  0  0  0  0  0  0  0  0999 V2000
  126.9350  124.2830  130.1970 C   0  0  0  0  0  0  0  0  0  0  0  0
  127.2740  125.0400  129.0350 O   0  0  0  0  0  0  0  0  0  0  0  0
  128.2940  124.5120  128.3130 C   0  0  0  0  0  0  0  0  0  0  0  0
  128.4240  123.3340  128.0170 O   0  0  0  0  0  0  0  0  0  0  0  0
  129.2620  125.5720  127.9160 C   0  0  0  0  0  0  0  0  0  0  0  0
  129.4510  126.7370  128.6690 C   0  0  0  0  0  0  0  0  0  0  0  0
  130.3760  127.6960  128.2530 C   0  0  0  0  0  0  0  0  0  0  0  0
  131.1120  127.4990  127.0830 C   0  0  0  0  0  0  0  0  0  0  0  0
  130.9330  126.3420  126.3140 C   0  0  0  0  0  0  0  0  0  0  0  0
  131.7420  126.1220  125.0550 C   0  0  0  0  0  0  0  0  0  0  0  0
  132.0110  124.6350  124.7490 C   0  0  0  0  0  0  0  0  0  0  0  0
  133.4420  124.2780  124.6690 N   0  0  0  0  0  0  0  0  0  0  0  0
  134.0080  124.0370  126.0000 C   0  0  0  0  0  0  0  0  0  0  0  0
  134.1900  125.3390  123.9660 C   0  0  0  0  0  0  0  0  0  0  0  0
  134.4640  125.0170  122.5110 C   0  0  0  0  0  0  0  0  0  0  0  0
  134.0500  125.8890  121.4950 C   0  0  0  0  0  0  0  0  0  0  0  0
  134.2910  125.5770  120.1550 C   0  0  0  0  0  0  0  0  0  0  0  0
  134.9440  124.3920  119.8190 C   0  0  0  0  0  0  0  0  0  0  0  0
  135.3560  123.5160  120.8200 C   0  0  0  0  0  0  0  0  0  0  0  0
  135.1160  123.8250  122.1600 C   0  0  0  0  0  0  0  0  0  0  0  0
  130.0060  125.3800  126.7410 C   0  0  0  0  0  0  0  0  0  0  0  0
  127.1929  124.8590  131.0980 H   0  0  0  0  0  0  0  0  0  0  0  0
  125.8557  124.0705  130.1942 H   0  0  0  0  0  0  0  0  0  0  0  0
  127.4951  123.3363  130.1942 H   0  0  0  0  0  0  0  0  0  0  0  0
  128.8700  126.8968  129.5893 H   0  0  0  0  0  0  0  0  0  0  0  0
  130.5254  128.6089  128.8482 H   0  0  0  0  0  0  0  0  0  0  0  0
  131.8392  128.2594  126.7621 H   0  0  0  0  0  0  0  0  0  0  0  0
  131.1928  126.5581  124.2075 H   0  0  0  0  0  0  0  0  0  0  0  0
  132.7193  126.6024  125.2102 H   0  0  0  0  0  0  0  0  0  0  0  0
  131.5496  124.0311  125.5443 H   0  0  0  0  0  0  0  0  0  0  0  0
  131.5817  124.4360  123.7560 H   0  0  0  0  0  0  0  0  0  0  0  0
  133.2834  124.3455  126.7679 H   0  0  0  0  0  0  0  0  0  0  0  0
  134.2308  122.9660  126.1153 H   0  0  0  0  0  0  0  0  0  0  0  0
  134.9345  124.6187  126.1153 H   0  0  0  0  0  0  0  0  0  0  0  0
  133.6042  126.2689  124.0133 H   0  0  0  0  0  0  0  0  0  0  0  0
  135.1645  125.4365  124.4668 H   0  0  0  0  0  0  0  0  0  0  0  0
  133.5324  126.8243  121.7543 H   0  0  0  0  0  0  0  0  0  0  0  0
  133.9649  126.2676  119.3633 H   0  0  0  0  0  0  0  0  0  0  0  0
  135.1338  124.1490  118.7631 H   0  0  0  0  0  0  0  0  0  0  0  0
  135.8705  122.5806  120.5548 H   0  0  0  0  0  0  0  0  0  0  0  0
  135.4406  123.1285  122.9471 H   0  0  0  0  0  0  0  0  0  0  0  0
  129.8602  124.4647  126.1485 H   0  0  0  0  0  0  0  0  0  0  0  0
  1  2  1  0
  2  3  1  0
  3  4  2  0
  3  5  1  0
  5  6  1  0
  6  7  2  0
  7  8  1  0
  8  9  2  0
  9 10  1  0
 10 11  1  0
 11 12  1  0
 12 13  1  0
 12 14  1  0
 14 15  1  0
 15 16  2  0
 16 17  1  0
 17 18  2  0
 18 19  1  0
 19 20  2  0
  9 21  1  0
 21  5  2  0
 20 15  1  0
  1 22  1  0
  1 23  1  0
  1 24  1  0
  6 25  1  0
  7 26  1  0
  8 27  1  0
 10 28  1  0
 10 29  1  0
 11 30  1  0
 11 31  1  0
 13 32  1  0
 13 33  1  0
 13 34  1  0
 14 35  1  0
 14 36  1  0
 16 37  1  0
 17 38  1  0
 18 39  1  0
 19 40  1  0
 20 41  1  0
 21 42  1  0
M  END
>  <meeko>  (19) 
{"is_sidechain": [false], "free_energy": -5.905, "intermolecular_energy": -10.171, "internal_energy": -0.648}

$$$$
seed-5302
     RDKit          3D

 42 43  0  0  0  0  0  0  0  0999 V2000
  134.6680  122.6980  116.5050 C   0  0  0  0  0  0  0  0  0  0  0  0
  135.2740  123.2890  117.6550 O   0  0  0  0  0  0  0  0  0  0  0  0
  134.5800  124.3380  118.1650 C   0  0  0  0  0  0  0  0  0  0  0  0
  133.7900  125.0370  117.5490 O   0  0  0  0  0  0  0  0  0  0  0  0
  134.9070  124.5370  119.6040 C   0  0  0  0  0  0  0  0  0  0  0  0
  136.1420  124.1690  120.1510 C   0  0  0  0  0  0  0  0  0  0  0  0
  136.3970  124.3830  121.5070 C   0  0  0  0  0  0  0  0  0  0  0  0
  135.4220  124.9600  122.3210 C   0  0  0  0  0  0  0  0  0  0  0  0
  134.1780  125.3300  121.7920 C   0  0  0  0  0  0  0  0  0  0  0  0
  133.1270  125.9690  122.6720 C   0  0  0  0  0  0  0  0  0  0  0  0
  133.5470  126.0750  124.1520 C   0  0  0  0  0  0  0  0  0  0  0  0
  132.7110  125.2880  125.0810 N   0  0  0  0  0  0  0  0  0  0  0  0
  133.1420  123.8870  125.1300 C   0  0  0  0  0  0  0  0  0  0  0  0
  131.2920  125.3850  124.6920 C   0  0  0  0  0  0  0  0  0  0  0  0
  130.5510  126.5020  125.3990 C   0  0  0  0  0  0  0  0  0  0  0  0
  130.0380  127.5890  124.6790 C   0  0  0  0  0  0  0  0  0  0  0  0
  129.3700  128.6240  125.3400 C   0  0  0  0  0  0  0  0  0  0  0  0
  129.2130  128.5820  126.7250 C   0  0  0  0  0  0  0  0  0  0  0  0
  129.7230  127.5080  127.4520 C   0  0  0  0  0  0  0  0  0  0  0  0
  130.3900  126.4740  126.7930 C   0  0  0  0  0  0  0  0  0  0  0  0
  133.9310  125.1170  120.4290 C   0  0  0  0  0  0  0  0  0  0  0  0
  133.9144  121.9631  116.8245 H   0  0  0  0  0  0  0  0  0  0  0  0
  134.1843  123.4808  115.9023 H   0  0  0  0  0  0  0  0  0  0  0  0
  135.4384  122.1948  115.9023 H   0  0  0  0  0  0  0  0  0  0  0  0
  136.9117  123.7111  119.5123 H   0  0  0  0  0  0  0  0  0  0  0  0
  137.3690  124.0959  121.9345 H   0  0  0  0  0  0  0  0  0  0  0  0
  135.6315  125.1261  123.3880 H   0  0  0  0  0  0  0  0  0  0  0  0
  132.9249  126.9820  122.2938 H   0  0  0  0  0  0  0  0  0  0  0  0
  132.2365  125.3245  122.6333 H   0  0  0  0  0  0  0  0  0  0  0  0
  134.5853  125.7229  124.2411 H   0  0  0  0  0  0  0  0  0  0  0  0
  133.4262  127.1303  124.4379 H   0  0  0  0  0  0  0  0  0  0  0  0
  133.2396  123.5699  126.1788 H   0  0  0  0  0  0  0  0  0  0  0  0
  132.3964  123.2561  124.6240 H   0  0  0  0  0  0  0  0  0  0  0  0
  134.1133  123.7843  124.6240 H   0  0  0  0  0  0  0  0  0  0  0  0
  131.2387  125.5624  123.6077 H   0  0  0  0  0  0  0  0  0  0  0  0
  130.8097  124.4399  124.9819 H   0  0  0  0  0  0  0  0  0  0  0  0
  130.1616  127.6282  123.5867 H   0  0  0  0  0  0  0  0  0  0  0  0
  128.9678  129.4724  124.7670 H   0  0  0  0  0  0  0  0  0  0  0  0
  128.6865  129.3967  127.2437 H   0  0  0  0  0  0  0  0  0  0  0  0
  129.6000  127.4752  128.5446 H   0  0  0  0  0  0  0  0  0  0  0  0
  130.7931  125.6296  127.3714 H   0  0  0  0  0  0  0  0  0  0  0  0
  132.9605  125.4079  120.0007 H   0  0  0  0  0  0  0  0  0  0  0  0
  1  2  1  0
  2  3  1  0
  3  4  2  0
  3  5  1  0
  5  6  1  0
  6  7  2  0
  7  8  1  0
  8  9  2  0
  9 10  1  0
 10 11  1  0
 11 12  1  0
 12 13  1  0
 12 14  1  0
 14 15  1  0
 15 16  2  0
 16 17  1  0
 17 18  2  0
 18 19  1  0
 19 20  2  0
  9 21  1  0
 21  5  2  0
 20 15  1  0
  1 22  1  0
  1 23  1  0
  1 24  1  0
  6 25  1  0
  7 26  1  0
  8 27  1  0
 10 28  1  0
 10 29  1  0
 11 30  1  0
 11 31  1  0
 13 32  1  0
 13 33  1  0
 13 34  1  0
 14 35  1  0
 14 36  1  0
 16 37  1  0
 17 38  1  0
 18 39  1  0
 19 40  1  0
 20 41  1  0
 21 42  1  0
M  END
>  <meeko>  (20) 
{"is_sidechain": [false], "free_energy": -5.734, "intermolecular_energy": -9.895, "internal_energy": -0.683}

$$$$
