seed-5303
     RDKit          3D

 42 43  0  0  0  0  0  0  0  0999 V2000
  135.1280  123.5010  118.2550 C   0  0  0  0  0  0  0  0  0  0  0  0
  135.4370  123.5540  119.6480 O   0  0  0  0  0  0  0  0  0  0  0  0
  135.0500  124.7040  120.2540 C   0  0  0  0  0  0  0  0  0  0  0  0
  134.3800  125.5880  119.7440 O   0  0  0  0  0  0  0  0  0  0  0  0
  135.5550  124.7580  121.6540 C   0  0  0  0  0  0  0  0  0  0  0  0
  135.8830  125.9620  122.2880 C   0  0  0  0  0  0  0  0  0  0  0  0
  136.3480  125.9550  123.6050 C   0  0  0  0  0  0  0  0  0  0  0  0
  136.4870  124.7480  124.2920 C   0  0  0  0  0  0  0  0  0  0  0  0
  136.1680  123.5330  123.6730 C   0  0  0  0  0  0  0  0  0  0  0  0
  136.3060  122.2280  124.4230 C   0  0  0  0  0  0  0  0  0  0  0  0
  134.9540  121.5740  124.7730 C   0  0  0  0  0  0  0  0  0  0  0  0
  134.2200  122.2380  125.8700 N   0  0  0  0  0  0  0  0  0  0  0  0
  134.2960  121.4610  127.1110 C   0  0  0  0  0  0  0  0  0  0  0  0
  132.8160  122.4620  125.4780 C   0  0  0  0  0  0  0  0  0  0  0  0
  132.6150  123.7190  124.6560 C   0  0  0  0  0  0  0  0  0  0  0  0
  132.1770  123.6430  123.3270 C   0  0  0  0  0  0  0  0  0  0  0  0
  132.0100  124.8060  122.5700 C   0  0  0  0  0  0  0  0  0  0  0  0
  132.2810  126.0520  123.1340 C   0  0  0  0  0  0  0  0  0  0  0  0
  132.7210  126.1390  124.4520 C   0  0  0  0  0  0  0  0  0  0  0  0
  132.8890  124.9790  125.2100 C   0  0  0  0  0  0  0  0  0  0  0  0
  135.6980  123.5480  122.3520 C   0  0  0  0  0  0  0  0  0  0  0  0
  134.0514  123.3163  118.1250 H   0  0  0  0  0  0  0  0  0  0  0  0
  135.3954  124.4581  117.7834 H   0  0  0  0  0  0  0  0  0  0  0  0
  135.6991  122.6877  117.7834 H   0  0  0  0  0  0  0  0  0  0  0  0
  135.7745  126.9145  121.7486 H   0  0  0  0  0  0  0  0  0  0  0  0
  136.6051  126.9023  124.1016 H   0  0  0  0  0  0  0  0  0  0  0  0
  136.8508  124.7512  125.3301 H   0  0  0  0  0  0  0  0  0  0  0  0
  136.8808  121.5272  123.7997 H   0  0  0  0  0  0  0  0  0  0  0  0
  136.8124  122.4528  125.3733 H   0  0  0  0  0  0  0  0  0  0  0  0
  134.3200  121.5927  123.8743 H   0  0  0  0  0  0  0  0  0  0  0  0
  135.1789  120.5541  125.1183 H   0  0  0  0  0  0  0  0  0  0  0  0
  134.2296  122.1403  127.9736 H   0  0  0  0  0  0  0  0  0  0  0  0
  133.4639  120.7424  127.1452 H   0  0  0  0  0  0  0  0  0  0  0  0
  135.2516  120.9173  127.1452 H   0  0  0  0  0  0  0  0  0  0  0  0
  132.4775  121.5996  124.8850 H   0  0  0  0  0  0  0  0  0  0  0  0
  132.2351  122.5828  126.4042 H   0  0  0  0  0  0  0  0  0  0  0  0
  131.9634  122.6623  122.8769 H   0  0  0  0  0  0  0  0  0  0  0  0
  131.6643  124.7382  121.5279 H   0  0  0  0  0  0  0  0  0  0  0  0
  132.1472  126.9665  122.5375 H   0  0  0  0  0  0  0  0  0  0  0  0
  132.9363  127.1221  124.8961 H   0  0  0  0  0  0  0  0  0  0  0  0
  133.2391  125.0531  126.2502 H   0  0  0  0  0  0  0  0  0  0  0  0
  135.4383  122.6008  121.8567 H   0  0  0  0  0  0  0  0  0  0  0  0
  1  2  1  0
  2  3  1  0
  3  4  2  0
  3  5  1  0
  5  6  1  0
  6  7  2  0
  7  8  1  0
  8  9  2  0
  9 10  1  0
 10 11  1  0
 11 12  1  0
 12 13  1  0
 12 14  1  0
 14 15  1  0
 15 16  2  0
 16 17  1  0
 17 18  2  0
 18 19  1  0
 19 20  2  0
  9 21  1  0
 21  5  2  0
 20 15  1  0
  1 22  1  0
  1 23  1  0
  1 24  1  0
  6 25  1  0
  7 26  1  0
  8 27  1  0
 10 28  1  0
 10 29  1  0
 11 30  1  0
 11 31  1  0
 13 32  1  0
 13 33  1  0
 13 34  1  0
 14 35  1  0
 14 36  1  0
 16 37  1  0
 17 38  1  0
 18 39  1  0
 19 40  1  0
 20 41  1  0
 21 42  1  0
M  END
>  <meeko>  (1) 
{"is_sidechain": [false], "free_energy": -7.298, "intermolecular_energy": -10.284, "internal_energy": -2.592}

$$$$
seed-5303
     RDKit          3D

 42 43  0  0  0  0  0  0  0  0999 V2000
  129.3230  127.4030  127.5630 C   0  0  0  0  0  0  0  0  0  0  0  0
  130.4320  126.5090  127.6520 O   0  0  0  0  0  0  0  0  0  0  0  0
  131.3960  126.7340  126.7240 C   0  0  0  0  0  0  0  0  0  0  0  0
  132.0230  127.7730  126.5840 O   0  0  0  0  0  0  0  0  0  0  0  0
  131.6020  125.5280  125.8750 C   0  0  0  0  0  0  0  0  0  0  0  0
  131.3660  124.2300  126.3440 C   0  0  0  0  0  0  0  0  0  0  0  0
  131.5700  123.1340  125.5030 C   0  0  0  0  0  0  0  0  0  0  0  0
  132.0140  123.3290  124.1940 C   0  0  0  0  0  0  0  0  0  0  0  0
  132.2600  124.6210  123.7090 C   0  0  0  0  0  0  0  0  0  0  0  0
  132.7260  124.8310  122.2860 C   0  0  0  0  0  0  0  0  0  0  0  0
  134.1860  124.3970  122.0470 C   0  0  0  0  0  0  0  0  0  0  0  0
  135.1630  125.0070  122.9730 N   0  0  0  0  0  0  0  0  0  0  0  0
  135.8530  126.1420  122.3500 C   0  0  0  0  0  0  0  0  0  0  0  0
  136.1320  123.9910  123.4270 C   0  0  0  0  0  0  0  0  0  0  0  0
  135.6530  123.2000  124.6270 C   0  0  0  0  0  0  0  0  0  0  0  0
  135.4280  121.8200  124.5320 C   0  0  0  0  0  0  0  0  0  0  0  0
  134.9710  121.1000  125.6380 C   0  0  0  0  0  0  0  0  0  0  0  0
  134.7310  121.7520  126.8470 C   0  0  0  0  0  0  0  0  0  0  0  0
  134.9470  123.1240  126.9530 C   0  0  0  0  0  0  0  0  0  0  0  0
  135.4040  123.8460  125.8490 C   0  0  0  0  0  0  0  0  0  0  0  0
  132.0470  125.7160  124.5580 C   0  0  0  0  0  0  0  0  0  0  0  0
  128.9877  127.6733  128.5752 H   0  0  0  0  0  0  0  0  0  0  0  0
  129.6269  128.3116  127.0226 H   0  0  0  0  0  0  0  0  0  0  0  0
  128.4996  126.9131  127.0226 H   0  0  0  0  0  0  0  0  0  0  0  0
  131.0195  124.0734  127.3762 H   0  0  0  0  0  0  0  0  0  0  0  0
  131.3805  122.1154  125.8726 H   0  0  0  0  0  0  0  0  0  0  0  0
  132.1723  122.4610  123.5372 H   0  0  0  0  0  0  0  0  0  0  0  0
  132.0756  124.2484  121.6170 H   0  0  0  0  0  0  0  0  0  0  0  0
  132.6721  125.9109  122.0837 H   0  0  0  0  0  0  0  0  0  0  0  0
  134.2427  123.3041  122.1579 H   0  0  0  0  0  0  0  0  0  0  0  0
  134.4543  124.7397  121.0368 H   0  0  0  0  0  0  0  0  0  0  0  0
  136.2542  126.8020  123.1332 H   0  0  0  0  0  0  0  0  0  0  0  0
  136.6785  125.7709  121.7248 H   0  0  0  0  0  0  0  0  0  0  0  0
  135.1436  126.7041  121.7248 H   0  0  0  0  0  0  0  0  0  0  0  0
  136.3177  123.2911  122.5990 H   0  0  0  0  0  0  0  0  0  0  0  0
  137.0446  124.5243  123.7315 H   0  0  0  0  0  0  0  0  0  0  0  0
  135.6125  121.3005  123.5801 H   0  0  0  0  0  0  0  0  0  0  0  0
  134.8000  120.0165  125.5552 H   0  0  0  0  0  0  0  0  0  0  0  0
  134.3712  121.1830  127.7169 H   0  0  0  0  0  0  0  0  0  0  0  0
  134.7575  123.6386  127.9066 H   0  0  0  0  0  0  0  0  0  0  0  0
  135.5705  124.9298  125.9369 H   0  0  0  0  0  0  0  0  0  0  0  0
  132.2310  126.7350  124.1870 H   0  0  0  0  0  0  0  0  0  0  0  0
  1  2  1  0
  2  3  1  0
  3  4  2  0
  3  5  1  0
  5  6  1  0
  6  7  2  0
  7  8  1  0
  8  9  2  0
  9 10  1  0
 10 11  1  0
 11 12  1  0
 12 13  1  0
 12 14  1  0
 14 15  1  0
 15 16  2  0
 16 17  1  0
 17 18  2  0
 18 19  1  0
 19 20  2  0
  9 21  1  0
 21  5  2  0
 20 15  1  0
  1 22  1  0
  1 23  1  0
  1 24  1  0
  6 25  1  0
  7 26  1  0
  8 27  1  0
 10 28  1  0
 10 29  1  0
 11 30  1  0
 11 31  1  0
 13 32  1  0
 13 33  1  0
 13 34  1  0
 14 35  1  0
 14 36  1  0
 16 37  1  0
 17 38  1  0
 18 39  1  0
 19 40  1  0
 20 41  1  0
 21 42  1  0
M  END
>  <meeko>  (2) 
{"is_sidechain": [false], "free_energy": -7.224, "intermolecular_energy": -10.537, "internal_energy": -2.235}

$$$$
seed-5303
     RDKit          3D

 42 43  0  0  0  0  0  0  0  0999 V2000
  133.5370  124.0980  117.4000 C   0  0  0  0  0  0  0  0  0  0  0  0
  134.4400  124.8340  118.2250 O   0  0  0  0  0  0  0  0  0  0  0  0
  134.9830  124.1060  119.2330 C   0  0  0  0  0  0  0  0  0  0  0  0
  135.4270  122.9720  119.1350 O   0  0  0  0  0  0  0  0  0  0  0  0
  134.9710  124.8780  120.5060 C   0  0  0  0  0  0  0  0  0  0  0  0
  136.1350  125.4150  121.0690 C   0  0  0  0  0  0  0  0  0  0  0  0
  136.0670  126.1350  122.2640 C   0  0  0  0  0  0  0  0  0  0  0  0
  134.8390  126.3180  122.9010 C   0  0  0  0  0  0  0  0  0  0  0  0
  133.6640  125.7840  122.3560 C   0  0  0  0  0  0  0  0  0  0  0  0
  132.3320  125.9970  123.0390 C   0  0  0  0  0  0  0  0  0  0  0  0
  132.4200  125.9670  124.5780 C   0  0  0  0  0  0  0  0  0  0  0  0
  131.8800  124.7390  125.1970 N   0  0  0  0  0  0  0  0  0  0  0  0
  130.6330  125.0090  125.9190 C   0  0  0  0  0  0  0  0  0  0  0  0
  132.8850  124.1390  126.0950 C   0  0  0  0  0  0  0  0  0  0  0  0
  134.1320  123.6710  125.3720 C   0  0  0  0  0  0  0  0  0  0  0  0
  135.3990  124.1270  125.7600 C   0  0  0  0  0  0  0  0  0  0  0  0
  136.5420  123.7040  125.0790 C   0  0  0  0  0  0  0  0  0  0  0  0
  136.4290  122.8240  124.0030 C   0  0  0  0  0  0  0  0  0  0  0  0
  135.1750  122.3670  123.6050 C   0  0  0  0  0  0  0  0  0  0  0  0
  134.0310  122.7890  124.2850 C   0  0  0  0  0  0  0  0  0  0  0  0
  133.7400  125.0670  121.1530 C   0  0  0  0  0  0  0  0  0  0  0  0
  132.8405  123.5303  118.0344 H   0  0  0  0  0  0  0  0  0  0  0  0
  132.9699  124.7945  116.7649 H   0  0  0  0  0  0  0  0  0  0  0  0
  134.1048  123.4021  116.7649 H   0  0  0  0  0  0  0  0  0  0  0  0
  137.1043  125.2697  120.5696 H   0  0  0  0  0  0  0  0  0  0  0  0
  136.9824  126.5582  122.7034 H   0  0  0  0  0  0  0  0  0  0  0  0
  134.7931  126.8875  123.8410 H   0  0  0  0  0  0  0  0  0  0  0  0
  131.9354  126.9759  122.7317 H   0  0  0  0  0  0  0  0  0  0  0  0
  131.6758  125.1680  122.7355 H   0  0  0  0  0  0  0  0  0  0  0  0
  133.4782  126.0595  124.8638 H   0  0  0  0  0  0  0  0  0  0  0  0
  131.8022  126.8004  124.9438 H   0  0  0  0  0  0  0  0  0  0  0  0
  130.8203  124.9684  127.0022 H   0  0  0  0  0  0  0  0  0  0  0  0
  130.2616  126.0084  125.6483 H   0  0  0  0  0  0  0  0  0  0  0  0
  129.8814  124.2528  125.6483 H   0  0  0  0  0  0  0  0  0  0  0  0
  133.1768  124.8901  126.8438 H   0  0  0  0  0  0  0  0  0  0  0  0
  132.4232  123.2528  126.5548 H   0  0  0  0  0  0  0  0  0  0  0  0
  135.4936  124.8228  126.6067 H   0  0  0  0  0  0  0  0  0  0  0  0
  137.5329  124.0653  125.3915 H   0  0  0  0  0  0  0  0  0  0  0  0
  137.3307  122.4907  123.4684 H   0  0  0  0  0  0  0  0  0  0  0  0
  135.0860  121.6740  122.7554 H   0  0  0  0  0  0  0  0  0  0  0  0
  133.0423  122.4272  123.9662 H   0  0  0  0  0  0  0  0  0  0  0  0
  132.8239  124.6478  120.7114 H   0  0  0  0  0  0  0  0  0  0  0  0
  1  2  1  0
  2  3  1  0
  3  4  2  0
  3  5  1  0
  5  6  1  0
  6  7  2  0
  7  8  1  0
  8  9  2  0
  9 10  1  0
 10 11  1  0
 11 12  1  0
 12 13  1  0
 12 14  1  0
 14 15  1  0
 15 16  2  0
 16 17  1  0
 17 18  2  0
 18 19  1  0
 19 20  2  0
  9 21  1  0
 21  5  2  0
 20 15  1  0
  1 22  1  0
  1 23  1  0
  1 24  1  0
  6 25  1  0
  7 26  1  0
  8 27  1  0
 10 28  1  0
 10 29  1  0
 11 30  1  0
 11 31  1  0
 13 32  1  0
 13 33  1  0
 13 34  1  0
 14 35  1  0
 14 36  1  0
 16 37  1  0
 17 38  1  0
 18 39  1  0
 19 40  1  0
 20 41  1  0
 21 42  1  0
M  END
>  <meeko>  (3) 
{"is_sidechain": [false], "free_energy": -7.122, "intermolecular_energy": -10.35, "internal_energy": -2.278}

$$$$
seed-5303
     RDKit          3D

 42 43  0  0  0  0  0  0  0  0999 V2000
  136.8300  127.4900  125.2920 C   0  0  0  0  0  0  0  0  0  0  0  0
  135.7490  126.8170  124.6450 O   0  0  0  0  0  0  0  0  0  0  0  0
  135.9000  126.6980  123.3020 C   0  0  0  0  0  0  0  0  0  0  0  0
  136.1430  127.6110  122.5280 O   0  0  0  0  0  0  0  0  0  0  0  0
  135.7300  125.2810  122.8770 C   0  0  0  0  0  0  0  0  0  0  0  0
  135.3460  124.9280  121.5780 C   0  0  0  0  0  0  0  0  0  0  0  0
  135.2060  123.5830  121.2300 C   0  0  0  0  0  0  0  0  0  0  0  0
  135.4470  122.5870  122.1780 C   0  0  0  0  0  0  0  0  0  0  0  0
  135.8280  122.9200  123.4840 C   0  0  0  0  0  0  0  0  0  0  0  0
  136.1030  121.8400  124.5050 C   0  0  0  0  0  0  0  0  0  0  0  0
  134.8690  121.4640  125.3500 C   0  0  0  0  0  0  0  0  0  0  0  0
  134.5420  122.4320  126.4170 N   0  0  0  0  0  0  0  0  0  0  0  0
  134.9360  121.9260  127.7360 C   0  0  0  0  0  0  0  0  0  0  0  0
  133.1030  122.7520  126.3880 C   0  0  0  0  0  0  0  0  0  0  0  0
  132.7390  123.7880  125.3430 C   0  0  0  0  0  0  0  0  0  0  0  0
  132.7890  125.1560  125.6440 C   0  0  0  0  0  0  0  0  0  0  0  0
  132.4360  126.1050  124.6810 C   0  0  0  0  0  0  0  0  0  0  0  0
  132.0280  125.6950  123.4120 C   0  0  0  0  0  0  0  0  0  0  0  0
  131.9700  124.3380  123.1030 C   0  0  0  0  0  0  0  0  0  0  0  0
  132.3220  123.3890  124.0640 C   0  0  0  0  0  0  0  0  0  0  0  0
  135.9710  124.2730  123.8240 C   0  0  0  0  0  0  0  0  0  0  0  0
  136.7087  127.4145  126.3827 H   0  0  0  0  0  0  0  0  0  0  0  0
  137.7816  127.0244  124.9958 H   0  0  0  0  0  0  0  0  0  0  0  0
  136.8322  128.5494  124.9958 H   0  0  0  0  0  0  0  0  0  0  0  0
  135.1542  125.7115  120.8301 H   0  0  0  0  0  0  0  0  0  0  0  0
  134.9056  123.3081  120.2082 H   0  0  0  0  0  0  0  0  0  0  0  0
  135.3365  121.5294  121.8963 H   0  0  0  0  0  0  0  0  0  0  0  0
  136.4497  120.9403  123.9754 H   0  0  0  0  0  0  0  0  0  0  0  0
  136.8613  122.2346  125.1973 H   0  0  0  0  0  0  0  0  0  0  0  0
  134.0019  121.3873  124.6775 H   0  0  0  0  0  0  0  0  0  0  0  0
  135.1088  120.5143  125.8505 H   0  0  0  0  0  0  0  0  0  0  0  0
  134.4615  122.5354  128.5192 H   0  0  0  0  0  0  0  0  0  0  0  0
  134.6124  120.8797  127.8390 H   0  0  0  0  0  0  0  0  0  0  0  0
  136.0297  121.9833  127.8390 H   0  0  0  0  0  0  0  0  0  0  0  0
  132.5445  121.8289  126.1735 H   0  0  0  0  0  0  0  0  0  0  0  0
  132.8440  123.1752  127.3697 H   0  0  0  0  0  0  0  0  0  0  0  0
  133.1080  125.4845  126.6442 H   0  0  0  0  0  0  0  0  0  0  0  0
  132.4800  127.1769  124.9242 H   0  0  0  0  0  0  0  0  0  0  0  0
  131.7519  126.4436  122.6548 H   0  0  0  0  0  0  0  0  0  0  0  0
  131.6471  124.0146  122.1024 H   0  0  0  0  0  0  0  0  0  0  0  0
  132.2721  122.3184  123.8165 H   0  0  0  0  0  0  0  0  0  0  0  0
  136.2756  124.5477  124.8447 H   0  0  0  0  0  0  0  0  0  0  0  0
  1  2  1  0
  2  3  1  0
  3  4  2  0
  3  5  1  0
  5  6  1  0
  6  7  2  0
  7  8  1  0
  8  9  2  0
  9 10  1  0
 10 11  1  0
 11 12  1  0
 12 13  1  0
 12 14  1  0
 14 15  1  0
 15 16  2  0
 16 17  1  0
 17 18  2  0
 18 19  1  0
 19 20  2  0
  9 21  1  0
 21  5  2  0
 20 15  1  0
  1 22  1  0
  1 23  1  0
  1 24  1  0
  6 25  1  0
  7 26  1  0
  8 27  1  0
 10 28  1  0
 10 29  1  0
 11 30  1  0
 11 31  1  0
 13 32  1  0
 13 33  1  0
 13 34  1  0
 14 35  1  0
 14 36  1  0
 16 37  1  0
 17 38  1  0
 18 39  1  0
 19 40  1  0
 20 41  1  0
 21 42  1  0
M  END
>  <meeko>  (4) 
{"is_sidechain": [false], "free_energy": -6.868, "intermolecular_energy": -10.002, "internal_energy": -2.268}

$$$$
seed-5303
     RDKit          3D

 42 43  0  0  0  0  0  0  0  0999 V2000
  135.3400  122.1900  115.9110 C   0  0  0  0  0  0  0  0  0  0  0  0
  134.3460  122.2140  116.9360 O   0  0  0  0  0  0  0  0  0  0  0  0
  134.0150  123.4630  117.3520 C   0  0  0  0  0  0  0  0  0  0  0  0
  133.2950  124.2470  116.7530 O   0  0  0  0  0  0  0  0  0  0  0  0
  134.6530  123.7680  118.6630 C   0  0  0  0  0  0  0  0  0  0  0  0
  135.6880  122.9890  119.1940 C   0  0  0  0  0  0  0  0  0  0  0  0
  136.2540  123.3230  120.4250 C   0  0  0  0  0  0  0  0  0  0  0  0
  135.7890  124.4330  121.1310 C   0  0  0  0  0  0  0  0  0  0  0  0
  134.7510  125.2230  120.6190 C   0  0  0  0  0  0  0  0  0  0  0  0
  134.2580  126.4330  121.3780 C   0  0  0  0  0  0  0  0  0  0  0  0
  134.6910  126.4490  122.8580 C   0  0  0  0  0  0  0  0  0  0  0  0
  133.9700  125.4840  123.7140 N   0  0  0  0  0  0  0  0  0  0  0  0
  132.6080  125.9430  124.0060 C   0  0  0  0  0  0  0  0  0  0  0  0
  134.7230  125.2540  124.9620 C   0  0  0  0  0  0  0  0  0  0  0  0
  134.8800  123.7870  125.3060 C   0  0  0  0  0  0  0  0  0  0  0  0
  135.5800  122.9220  124.4540 C   0  0  0  0  0  0  0  0  0  0  0  0
  135.7060  121.5670  124.7700 C   0  0  0  0  0  0  0  0  0  0  0  0
  135.1320  121.0650  125.9370 C   0  0  0  0  0  0  0  0  0  0  0  0
  134.4290  121.9140  126.7900 C   0  0  0  0  0  0  0  0  0  0  0  0
  134.3020  123.2680  126.4760 C   0  0  0  0  0  0  0  0  0  0  0  0
  134.1910  124.8830  119.3790 C   0  0  0  0  0  0  0  0  0  0  0  0
  136.3394  122.1659  116.3699 H   0  0  0  0  0  0  0  0  0  0  0  0
  135.2015  121.2949  115.2868 H   0  0  0  0  0  0  0  0  0  0  0  0
  135.2448  123.0907  115.2868 H   0  0  0  0  0  0  0  0  0  0  0  0
  136.0555  122.1125  118.6401 H   0  0  0  0  0  0  0  0  0  0  0  0
  137.0681  122.7102  120.8394 H   0  0  0  0  0  0  0  0  0  0  0  0
  136.2420  124.6907  122.0997 H   0  0  0  0  0  0  0  0  0  0  0  0
  134.6540  127.3356  120.8896 H   0  0  0  0  0  0  0  0  0  0  0  0
  133.1586  126.3988  121.3628 H   0  0  0  0  0  0  0  0  0  0  0  0
  135.7649  126.2156  122.9051 H   0  0  0  0  0  0  0  0  0  0  0  0
  134.4534  127.4511  123.2445 H   0  0  0  0  0  0  0  0  0  0  0  0
  132.4632  125.9918  125.0953 H   0  0  0  0  0  0  0  0  0  0  0  0
  132.4565  126.9418  123.5708 H   0  0  0  0  0  0  0  0  0  0  0  0
  131.8828  125.2396  123.5708 H   0  0  0  0  0  0  0  0  0  0  0  0
  135.7244  125.6958  124.8519 H   0  0  0  0  0  0  0  0  0  0  0  0
  134.1513  125.7204  125.7779 H   0  0  0  0  0  0  0  0  0  0  0  0
  136.0330  123.3124  123.5308 H   0  0  0  0  0  0  0  0  0  0  0  0
  136.2589  120.8952  124.0970 H   0  0  0  0  0  0  0  0  0  0  0  0
  135.2340  119.9981  126.1848 H   0  0  0  0  0  0  0  0  0  0  0  0
  133.9747  121.5173  127.7099 H   0  0  0  0  0  0  0  0  0  0  0  0
  133.7444  123.9343  127.1507 H   0  0  0  0  0  0  0  0  0  0  0  0
  133.3796  125.4979  118.9625 H   0  0  0  0  0  0  0  0  0  0  0  0
  1  2  1  0
  2  3  1  0
  3  4  2  0
  3  5  1  0
  5  6  1  0
  6  7  2  0
  7  8  1  0
  8  9  2  0
  9 10  1  0
 10 11  1  0
 11 12  1  0
 12 13  1  0
 12 14  1  0
 14 15  1  0
 15 16  2  0
 16 17  1  0
 17 18  2  0
 18 19  1  0
 19 20  2  0
  9 21  1  0
 21  5  2  0
 20 15  1  0
  1 22  1  0
  1 23  1  0
  1 24  1  0
  6 25  1  0
  7 26  1  0
  8 27  1  0
 10 28  1  0
 10 29  1  0
 11 30  1  0
 11 31  1  0
 13 32  1  0
 13 33  1  0
 13 34  1  0
 14 35  1  0
 14 36  1  0
 16 37  1  0
 17 38  1  0
 18 39  1  0
 19 40  1  0
 20 41  1  0
 21 42  1  0
M  END
>  <meeko>  (5) 
{"is_sidechain": [false], "free_energy": -6.859, "intermolecular_energy": -11.648, "internal_energy": -0.609}

$$$$
seed-5303
     RDKit          3D

 42 43  0  0  0  0  0  0  0  0999 V2000
  128.9260  124.2640  127.6370 C   0  0  0  0  0  0  0  0  0  0  0  0
  130.0670  123.4300  127.4390 O   0  0  0  0  0  0  0  0  0  0  0  0
  130.7970  123.7470  126.3400 C   0  0  0  0  0  0  0  0  0  0  0  0
  130.4330  124.4720  125.4270 O   0  0  0  0  0  0  0  0  0  0  0  0
  132.1320  123.0880  126.3850 C   0  0  0  0  0  0  0  0  0  0  0  0
  132.2810  121.6990  126.4690 C   0  0  0  0  0  0  0  0  0  0  0  0
  133.5560  121.1320  126.5020 C   0  0  0  0  0  0  0  0  0  0  0  0
  134.6860  121.9500  126.4560 C   0  0  0  0  0  0  0  0  0  0  0  0
  134.5580  123.3430  126.3770 C   0  0  0  0  0  0  0  0  0  0  0  0
  135.7830  124.2260  126.3120 C   0  0  0  0  0  0  0  0  0  0  0  0
  136.4420  124.2600  124.9190 C   0  0  0  0  0  0  0  0  0  0  0  0
  136.9000  125.5990  124.4930 N   0  0  0  0  0  0  0  0  0  0  0  0
  137.6910  126.2510  125.5410 C   0  0  0  0  0  0  0  0  0  0  0  0
  135.7430  126.4330  124.1150 C   0  0  0  0  0  0  0  0  0  0  0  0
  135.0910  126.0020  122.8170 C   0  0  0  0  0  0  0  0  0  0  0  0
  135.8480  125.8620  121.6470 C   0  0  0  0  0  0  0  0  0  0  0  0
  135.2380  125.4810  120.4500 C   0  0  0  0  0  0  0  0  0  0  0  0
  133.8650  125.2390  120.4120 C   0  0  0  0  0  0  0  0  0  0  0  0
  133.1000  125.3800  121.5680 C   0  0  0  0  0  0  0  0  0  0  0  0
  133.7090  125.7610  122.7650 C   0  0  0  0  0  0  0  0  0  0  0  0
  133.2730  123.9030  126.3390 C   0  0  0  0  0  0  0  0  0  0  0  0
  128.7490  124.3934  128.7149 H   0  0  0  0  0  0  0  0  0  0  0  0
  129.1048  125.2458  127.1743 H   0  0  0  0  0  0  0  0  0  0  0  0
  128.0448  123.7956  127.1743 H   0  0  0  0  0  0  0  0  0  0  0  0
  131.3917  121.0529  126.5091 H   0  0  0  0  0  0  0  0  0  0  0  0
  133.6703  120.0397  126.5643 H   0  0  0  0  0  0  0  0  0  0  0  0
  135.6877  121.4962  126.4821 H   0  0  0  0  0  0  0  0  0  0  0  0
  135.4887  125.2506  126.5832 H   0  0  0  0  0  0  0  0  0  0  0  0
  136.5223  123.8063  127.0100 H   0  0  0  0  0  0  0  0  0  0  0  0
  137.3122  123.5872  124.9335 H   0  0  0  0  0  0  0  0  0  0  0  0
  135.6709  123.9481  124.1992 H   0  0  0  0  0  0  0  0  0  0  0  0
  137.3167  125.9425  126.5283 H   0  0  0  0  0  0  0  0  0  0  0  0
  138.7462  125.9568  125.4405 H   0  0  0  0  0  0  0  0  0  0  0  0
  137.6036  127.3429  125.4405 H   0  0  0  0  0  0  0  0  0  0  0  0
  134.9936  126.3748  124.9181 H   0  0  0  0  0  0  0  0  0  0  0  0
  136.1148  127.4578  123.9678 H   0  0  0  0  0  0  0  0  0  0  0  0
  136.9309  126.0535  121.6712 H   0  0  0  0  0  0  0  0  0  0  0  0
  135.8408  125.3717  119.5364 H   0  0  0  0  0  0  0  0  0  0  0  0
  133.3859  124.9367  119.4691 H   0  0  0  0  0  0  0  0  0  0  0  0
  132.0168  125.1912  121.5374 H   0  0  0  0  0  0  0  0  0  0  0  0
  133.1010  125.8733  123.6748 H   0  0  0  0  0  0  0  0  0  0  0  0
  133.1582  124.9950  126.2723 H   0  0  0  0  0  0  0  0  0  0  0  0
  1  2  1  0
  2  3  1  0
  3  4  2  0
  3  5  1  0
  5  6  1  0
  6  7  2  0
  7  8  1  0
  8  9  2  0
  9 10  1  0
 10 11  1  0
 11 12  1  0
 12 13  1  0
 12 14  1  0
 14 15  1  0
 15 16  2  0
 16 17  1  0
 17 18  2  0
 18 19  1  0
 19 20  2  0
  9 21  1  0
 21  5  2  0
 20 15  1  0
  1 22  1  0
  1 23  1  0
  1 24  1  0
  6 25  1  0
  7 26  1  0
  8 27  1  0
 10 28  1  0
 10 29  1  0
 11 30  1  0
 11 31  1  0
 13 32  1  0
 13 33  1  0
 13 34  1  0
 14 35  1  0
 14 36  1  0
 16 37  1  0
 17 38  1  0
 18 39  1  0
 19 40  1  0
 20 41  1  0
 21 42  1  0
M  END
>  <meeko>  (6) 
{"is_sidechain": [false], "free_energy": -6.811, "intermolecular_energy": -11.273, "internal_energy": -0.917}

$$$$
seed-5303
     RDKit          3D

 42 43  0  0  0  0  0  0  0  0999 V2000
  132.6090  121.7840  126.5530 C   0  0  0  0  0  0  0  0  0  0  0  0
  134.0150  121.9650  126.7240 O   0  0  0  0  0  0  0  0  0  0  0  0
  134.7570  121.5290  125.6750 C   0  0  0  0  0  0  0  0  0  0  0  0
  134.9360  120.3610  125.3640 O   0  0  0  0  0  0  0  0  0  0  0  0
  135.3430  122.6770  124.9300 C   0  0  0  0  0  0  0  0  0  0  0  0
  135.6800  123.8840  125.5530 C   0  0  0  0  0  0  0  0  0  0  0  0
  136.2310  124.9280  124.8070 C   0  0  0  0  0  0  0  0  0  0  0  0
  136.4440  124.7720  123.4370 C   0  0  0  0  0  0  0  0  0  0  0  0
  136.1090  123.5730  122.7940 C   0  0  0  0  0  0  0  0  0  0  0  0
  136.3550  123.4000  121.3120 C   0  0  0  0  0  0  0  0  0  0  0  0
  135.9580  124.6330  120.4760 C   0  0  0  0  0  0  0  0  0  0  0  0
  134.5350  124.6690  120.0800 N   0  0  0  0  0  0  0  0  0  0  0  0
  134.3880  124.7710  118.6240 C   0  0  0  0  0  0  0  0  0  0  0  0
  133.8500  125.7890  120.7540 C   0  0  0  0  0  0  0  0  0  0  0  0
  133.2040  125.3930  122.0660 C   0  0  0  0  0  0  0  0  0  0  0  0
  132.5960  124.1390  122.2160 C   0  0  0  0  0  0  0  0  0  0  0  0
  131.9870  123.7880  123.4230 C   0  0  0  0  0  0  0  0  0  0  0  0
  131.9780  124.6870  124.4890 C   0  0  0  0  0  0  0  0  0  0  0  0
  132.5740  125.9390  124.3510 C   0  0  0  0  0  0  0  0  0  0  0  0
  133.1830  126.2910  123.1450 C   0  0  0  0  0  0  0  0  0  0  0  0
  135.5610  122.5280  123.5510 C   0  0  0  0  0  0  0  0  0  0  0  0
  132.1248  121.7217  127.5387 H   0  0  0  0  0  0  0  0  0  0  0  0
  132.1949  122.6362  125.9943 H   0  0  0  0  0  0  0  0  0  0  0  0
  132.4242  120.8547  125.9943 H   0  0  0  0  0  0  0  0  0  0  0  0
  135.5105  124.0106  126.6325 H   0  0  0  0  0  0  0  0  0  0  0  0
  136.4974  125.8745  125.3001 H   0  0  0  0  0  0  0  0  0  0  0  0
  136.8792  125.5984  122.8559 H   0  0  0  0  0  0  0  0  0  0  0  0
  137.4263  123.2043  121.1572 H   0  0  0  0  0  0  0  0  0  0  0  0
  135.7257  122.5633  120.9745 H   0  0  0  0  0  0  0  0  0  0  0  0
  136.1732  125.5344  121.0686 H   0  0  0  0  0  0  0  0  0  0  0  0
  136.5419  124.5826  119.5451 H   0  0  0  0  0  0  0  0  0  0  0  0
  133.5056  125.3833  118.3866 H   0  0  0  0  0  0  0  0  0  0  0  0
  135.2861  125.2410  118.1968 H   0  0  0  0  0  0  0  0  0  0  0  0
  134.2621  123.7652  118.1968 H   0  0  0  0  0  0  0  0  0  0  0  0
  134.5874  126.5807  120.9527 H   0  0  0  0  0  0  0  0  0  0  0  0
  133.0465  126.1301  120.0847 H   0  0  0  0  0  0  0  0  0  0  0  0
  132.5985  123.4267  121.3778 H   0  0  0  0  0  0  0  0  0  0  0  0
  131.5138  122.8011  123.5328 H   0  0  0  0  0  0  0  0  0  0  0  0
  131.5001  124.4076  125.4395 H   0  0  0  0  0  0  0  0  0  0  0  0
  132.5647  126.6490  125.1911 H   0  0  0  0  0  0  0  0  0  0  0  0
  133.6507  127.2810  123.0392 H   0  0  0  0  0  0  0  0  0  0  0  0
  135.2987  121.5799  123.0587 H   0  0  0  0  0  0  0  0  0  0  0  0
  1  2  1  0
  2  3  1  0
  3  4  2  0
  3  5  1  0
  5  6  1  0
  6  7  2  0
  7  8  1  0
  8  9  2  0
  9 10  1  0
 10 11  1  0
 11 12  1  0
 12 13  1  0
 12 14  1  0
 14 15  1  0
 15 16  2  0
 16 17  1  0
 17 18  2  0
 18 19  1  0
 19 20  2  0
  9 21  1  0
 21  5  2  0
 20 15  1  0
  1 22  1  0
  1 23  1  0
  1 24  1  0
  6 25  1  0
  7 26  1  0
  8 27  1  0
 10 28  1  0
 10 29  1  0
 11 30  1  0
 11 31  1  0
 13 32  1  0
 13 33  1  0
 13 34  1  0
 14 35  1  0
 14 36  1  0
 16 37  1  0
 17 38  1  0
 18 39  1  0
 19 40  1  0
 20 41  1  0
 21 42  1  0
M  END
>  <meeko>  (7) 
{"is_sidechain": [false], "free_energy": -6.75, "intermolecular_energy": -9.626, "internal_energy": -2.477}

$$$$
seed-5303
     RDKit          3D

 42 43  0  0  0  0  0  0  0  0999 V2000
  137.7250  126.2020  125.5910 C   0  0  0  0  0  0  0  0  0  0  0  0
  137.2370  126.1060  124.2530 O   0  0  0  0  0  0  0  0  0  0  0  0
  136.6010  124.9390  123.9820 C   0  0  0  0  0  0  0  0  0  0  0  0
  136.8450  123.8570  124.4950 O   0  0  0  0  0  0  0  0  0  0  0  0
  135.5400  125.1420  122.9560 C   0  0  0  0  0  0  0  0  0  0  0  0
  135.8350  125.3790  121.6080 C   0  0  0  0  0  0  0  0  0  0  0  0
  134.8020  125.5580  120.6870 C   0  0  0  0  0  0  0  0  0  0  0  0
  133.4720  125.5040  121.1070 C   0  0  0  0  0  0  0  0  0  0  0  0
  133.1570  125.2730  122.4530 C   0  0  0  0  0  0  0  0  0  0  0  0
  131.7160  125.2000  122.9040 C   0  0  0  0  0  0  0  0  0  0  0  0
  131.4400  125.9760  124.2070 C   0  0  0  0  0  0  0  0  0  0  0  0
  130.8460  125.1630  125.2880 N   0  0  0  0  0  0  0  0  0  0  0  0
  129.5680  125.7240  125.7380 C   0  0  0  0  0  0  0  0  0  0  0  0
  131.7920  125.0470  126.4140 C   0  0  0  0  0  0  0  0  0  0  0  0
  132.5880  123.7580  126.3990 C   0  0  0  0  0  0  0  0  0  0  0  0
  131.9680  122.5370  126.1010 C   0  0  0  0  0  0  0  0  0  0  0  0
  132.7040  121.3500  126.1060 C   0  0  0  0  0  0  0  0  0  0  0  0
  134.0650  121.3730  126.4110 C   0  0  0  0  0  0  0  0  0  0  0  0
  134.6910  122.5800  126.7140 C   0  0  0  0  0  0  0  0  0  0  0  0
  133.9570  123.7670  126.7100 C   0  0  0  0  0  0  0  0  0  0  0  0
  134.2010  125.0890  123.3710 C   0  0  0  0  0  0  0  0  0  0  0  0
  136.8965  126.0390  126.2960 H   0  0  0  0  0  0  0  0  0  0  0  0
  138.5006  125.4392  125.7540 H   0  0  0  0  0  0  0  0  0  0  0  0
  138.1539  127.2017  125.7540 H   0  0  0  0  0  0  0  0  0  0  0  0
  136.8823  125.4242  121.2745 H   0  0  0  0  0  0  0  0  0  0  0  0
  135.0363  125.7420  119.6281 H   0  0  0  0  0  0  0  0  0  0  0  0
  132.6633  125.6441  120.3746 H   0  0  0  0  0  0  0  0  0  0  0  0
  131.0807  125.6173  122.1089 H   0  0  0  0  0  0  0  0  0  0  0  0
  131.4925  124.1417  123.1039 H   0  0  0  0  0  0  0  0  0  0  0  0
  132.3930  126.3879  124.5704 H   0  0  0  0  0  0  0  0  0  0  0  0
  130.7032  126.7540  123.9586 H   0  0  0  0  0  0  0  0  0  0  0  0
  129.5399  125.7364  126.8376 H   0  0  0  0  0  0  0  0  0  0  0  0
  129.4637  126.7506  125.3570 H   0  0  0  0  0  0  0  0  0  0  0  0
  128.7417  125.1058  125.3570 H   0  0  0  0  0  0  0  0  0  0  0  0
  132.4950  125.8918  126.3676 H   0  0  0  0  0  0  0  0  0  0  0  0
  131.1980  125.0517  127.3398 H   0  0  0  0  0  0  0  0  0  0  0  0
  130.8946  122.5133  125.8616 H   0  0  0  0  0  0  0  0  0  0  0  0
  132.2100  120.3961  125.8692 H   0  0  0  0  0  0  0  0  0  0  0  0
  134.6441  120.4378  126.4123 H   0  0  0  0  0  0  0  0  0  0  0  0
  135.7638  122.5975  126.9564 H   0  0  0  0  0  0  0  0  0  0  0  0
  134.4551  124.7173  126.9525 H   0  0  0  0  0  0  0  0  0  0  0  0
  133.9672  124.9008  124.4293 H   0  0  0  0  0  0  0  0  0  0  0  0
  1  2  1  0
  2  3  1  0
  3  4  2  0
  3  5  1  0
  5  6  1  0
  6  7  2  0
  7  8  1  0
  8  9  2  0
  9 10  1  0
 10 11  1  0
 11 12  1  0
 12 13  1  0
 12 14  1  0
 14 15  1  0
 15 16  2  0
 16 17  1  0
 17 18  2  0
 18 19  1  0
 19 20  2  0
  9 21  1  0
 21  5  2  0
 20 15  1  0
  1 22  1  0
  1 23  1  0
  1 24  1  0
  6 25  1  0
  7 26  1  0
  8 27  1  0
 10 28  1  0
 10 29  1  0
 11 30  1  0
 11 31  1  0
 13 32  1  0
 13 33  1  0
 13 34  1  0
 14 35  1  0
 14 36  1  0
 16 37  1  0
 17 38  1  0
 18 39  1  0
 19 40  1  0
 20 41  1  0
 21 42  1  0
M  END
>  <meeko>  (8) 
{"is_sidechain": [false], "free_energy": -6.716, "intermolecular_energy": -10.788, "internal_energy": -1.267}

$$$$
seed-5303
     RDKit          3D

 42 43  0  0  0  0  0  0  0  0999 V2000
  135.3040  123.5600  118.9300 C   0  0  0  0  0  0  0  0  0  0  0  0
  135.3020  123.7030  120.3510 O   0  0  0  0  0  0  0  0  0  0  0  0
  134.6300  124.7950  120.7940 C   0  0  0  0  0  0  0  0  0  0  0  0
  133.9080  125.5100  120.1160 O   0  0  0  0  0  0  0  0  0  0  0  0
  134.8850  125.0200  122.2430 C   0  0  0  0  0  0  0  0  0  0  0  0
  136.1700  124.9680  122.7960 C   0  0  0  0  0  0  0  0  0  0  0  0
  136.3540  125.1920  124.1620 C   0  0  0  0  0  0  0  0  0  0  0  0
  135.2570  125.4660  124.9800 C   0  0  0  0  0  0  0  0  0  0  0  0
  133.9630  125.5170  124.4460 C   0  0  0  0  0  0  0  0  0  0  0  0
  132.7780  125.8290  125.3310 C   0  0  0  0  0  0  0  0  0  0  0  0
  132.5030  124.7470  126.3940 C   0  0  0  0  0  0  0  0  0  0  0  0
  131.7020  123.6040  125.9080 N   0  0  0  0  0  0  0  0  0  0  0  0
  130.2830  123.7650  126.2420 C   0  0  0  0  0  0  0  0  0  0  0  0
  132.2300  122.3430  126.4630 C   0  0  0  0  0  0  0  0  0  0  0  0
  133.6780  122.0860  126.0980 C   0  0  0  0  0  0  0  0  0  0  0  0
  134.6710  122.0540  127.0860 C   0  0  0  0  0  0  0  0  0  0  0  0
  136.0070  121.8340  126.7390 C   0  0  0  0  0  0  0  0  0  0  0  0
  136.3610  121.6460  125.4040 C   0  0  0  0  0  0  0  0  0  0  0  0
  135.3830  121.6800  124.4120 C   0  0  0  0  0  0  0  0  0  0  0  0
  134.0480  121.9000  124.7560 C   0  0  0  0  0  0  0  0  0  0  0  0
  133.7870  125.2960  123.0720 C   0  0  0  0  0  0  0  0  0  0  0  0
  135.3189  122.4915  118.6690 H   0  0  0  0  0  0  0  0  0  0  0  0
  134.3992  124.0266  118.5132 H   0  0  0  0  0  0  0  0  0  0  0  0
  136.1954  124.0517  118.5132 H   0  0  0  0  0  0  0  0  0  0  0  0
  137.0360  124.7504  122.1536 H   0  0  0  0  0  0  0  0  0  0  0  0
  137.3649  125.1524  124.5938 H   0  0  0  0  0  0  0  0  0  0  0  0
  135.4100  125.6437  126.0547 H   0  0  0  0  0  0  0  0  0  0  0  0
  132.9692  126.7822  125.8457 H   0  0  0  0  0  0  0  0  0  0  0  0
  131.8920  125.8765  124.6808 H   0  0  0  0  0  0  0  0  0  0  0  0
  133.4695  124.3625  126.7517 H   0  0  0  0  0  0  0  0  0  0  0  0
  131.9133  125.2290  127.1876 H   0  0  0  0  0  0  0  0  0  0  0  0
  130.1629  123.7786  127.3353 H   0  0  0  0  0  0  0  0  0  0  0  0
  129.9122  124.7110  125.8206 H   0  0  0  0  0  0  0  0  0  0  0  0
  129.7097  122.9261  125.8206 H   0  0  0  0  0  0  0  0  0  0  0  0
  132.1483  122.3830  127.5592 H   0  0  0  0  0  0  0  0  0  0  0  0
  131.6356  121.5239  126.0321 H   0  0  0  0  0  0  0  0  0  0  0  0
  134.3976  122.2029  128.1410 H   0  0  0  0  0  0  0  0  0  0  0  0
  136.7804  121.8092  127.5208 H   0  0  0  0  0  0  0  0  0  0  0  0
  137.4127  121.4708  125.1335 H   0  0  0  0  0  0  0  0  0  0  0  0
  135.6627  121.5335  123.3583 H   0  0  0  0  0  0  0  0  0  0  0  0
  133.2795  121.9279  123.9694 H   0  0  0  0  0  0  0  0  0  0  0  0
  132.7766  125.3396  122.6394 H   0  0  0  0  0  0  0  0  0  0  0  0
  1  2  1  0
  2  3  1  0
  3  4  2  0
  3  5  1  0
  5  6  1  0
  6  7  2  0
  7  8  1  0
  8  9  2  0
  9 10  1  0
 10 11  1  0
 11 12  1  0
 12 13  1  0
 12 14  1  0
 14 15  1  0
 15 16  2  0
 16 17  1  0
 17 18  2  0
 18 19  1  0
 19 20  2  0
  9 21  1  0
 21  5  2  0
 20 15  1  0
  1 22  1  0
  1 23  1  0
  1 24  1  0
  6 25  1  0
  7 26  1  0
  8 27  1  0
 10 28  1  0
 10 29  1  0
 11 30  1  0
 11 31  1  0
 13 32  1  0
 13 33  1  0
 13 34  1  0
 14 35  1  0
 14 36  1  0
 16 37  1  0
 17 38  1  0
 18 39  1  0
 19 40  1  0
 20 41  1  0
 21 42  1  0
M  END
>  <meeko>  (9) 
{"is_sidechain": [false], "free_energy": -6.603, "intermolecular_energy": -9.822, "internal_energy": -2.075}

$$$$
seed-5303
     RDKit          3D

 42 43  0  0  0  0  0  0  0  0999 V2000
  130.6470  125.3960  125.5320 C   0  0  0  0  0  0  0  0  0  0  0  0
  131.2850  124.2330  125.0020 O   0  0  0  0  0  0  0  0  0  0  0  0
  131.5710  123.2890  125.9330 C   0  0  0  0  0  0  0  0  0  0  0  0
  130.8760  123.0040  126.8960 O   0  0  0  0  0  0  0  0  0  0  0  0
  132.8690  122.6250  125.6300 C   0  0  0  0  0  0  0  0  0  0  0  0
  133.3630  121.5600  126.3910 C   0  0  0  0  0  0  0  0  0  0  0  0
  134.5850  120.9700  126.0600 C   0  0  0  0  0  0  0  0  0  0  0  0
  135.3170  121.4430  124.9700 C   0  0  0  0  0  0  0  0  0  0  0  0
  134.8410  122.5120  124.1990 C   0  0  0  0  0  0  0  0  0  0  0  0
  135.6290  123.0130  123.0100 C   0  0  0  0  0  0  0  0  0  0  0  0
  134.7430  123.4480  121.8250 C   0  0  0  0  0  0  0  0  0  0  0  0
  134.7350  124.9040  121.5730 N   0  0  0  0  0  0  0  0  0  0  0  0
  133.3670  125.4330  121.5480 C   0  0  0  0  0  0  0  0  0  0  0  0
  135.4340  125.2030  120.3090 C   0  0  0  0  0  0  0  0  0  0  0  0
  134.9880  124.3290  119.1540 C   0  0  0  0  0  0  0  0  0  0  0  0
  134.0740  124.8080  118.2050 C   0  0  0  0  0  0  0  0  0  0  0  0
  133.6540  123.9910  117.1530 C   0  0  0  0  0  0  0  0  0  0  0  0
  134.1410  122.6890  117.0420 C   0  0  0  0  0  0  0  0  0  0  0  0
  135.0460  122.2000  117.9820 C   0  0  0  0  0  0  0  0  0  0  0  0
  135.4670  123.0150  119.0340 C   0  0  0  0  0  0  0  0  0  0  0  0
  133.6120  123.0950  124.5350 C   0  0  0  0  0  0  0  0  0  0  0  0
  130.6683  125.3572  126.6311 H   0  0  0  0  0  0  0  0  0  0  0  0
  131.1781  126.2952  125.1865 H   0  0  0  0  0  0  0  0  0  0  0  0
  129.6033  125.4312  125.1865 H   0  0  0  0  0  0  0  0  0  0  0  0
  132.7881  121.1867  127.2513 H   0  0  0  0  0  0  0  0  0  0  0  0
  134.9707  120.1319  126.6589 H   0  0  0  0  0  0  0  0  0  0  0  0
  136.2774  120.9719  124.7135 H   0  0  0  0  0  0  0  0  0  0  0  0
  136.2312  123.8761  123.3299 H   0  0  0  0  0  0  0  0  0  0  0  0
  136.2521  122.1772  122.6589 H   0  0  0  0  0  0  0  0  0  0  0  0
  135.1086  122.9436  120.9184 H   0  0  0  0  0  0  0  0  0  0  0  0
  133.7113  123.1679  122.0841 H   0  0  0  0  0  0  0  0  0  0  0  0
  133.0086  125.5716  122.5787 H   0  0  0  0  0  0  0  0  0  0  0  0
  133.3572  126.3997  121.0233 H   0  0  0  0  0  0  0  0  0  0  0  0
  132.7094  124.7243  121.0233 H   0  0  0  0  0  0  0  0  0  0  0  0
  135.2435  126.2538  120.0451 H   0  0  0  0  0  0  0  0  0  0  0  0
  136.5031  125.0033  120.4737 H   0  0  0  0  0  0  0  0  0  0  0  0
  133.6853  125.8336  118.2895 H   0  0  0  0  0  0  0  0  0  0  0  0
  132.9383  124.3750  116.4112 H   0  0  0  0  0  0  0  0  0  0  0  0
  133.8105  122.0475  116.2118 H   0  0  0  0  0  0  0  0  0  0  0  0
  135.4284  121.1723  117.8950 H   0  0  0  0  0  0  0  0  0  0  0  0
  136.1799  122.6244  119.7751 H   0  0  0  0  0  0  0  0  0  0  0  0
  133.2246  123.9308  123.9339 H   0  0  0  0  0  0  0  0  0  0  0  0
  1  2  1  0
  2  3  1  0
  3  4  2  0
  3  5  1  0
  5  6  1  0
  6  7  2  0
  7  8  1  0
  8  9  2  0
  9 10  1  0
 10 11  1  0
 11 12  1  0
 12 13  1  0
 12 14  1  0
 14 15  1  0
 15 16  2  0
 16 17  1  0
 17 18  2  0
 18 19  1  0
 19 20  2  0
  9 21  1  0
 21  5  2  0
 20 15  1  0
  1 22  1  0
  1 23  1  0
  1 24  1  0
  6 25  1  0
  7 26  1  0
  8 27  1  0
 10 28  1  0
 10 29  1  0
 11 30  1  0
 11 31  1  0
 13 32  1  0
 13 33  1  0
 13 34  1  0
 14 35  1  0
 14 36  1  0
 16 37  1  0
 17 38  1  0
 18 39  1  0
 19 40  1  0
 20 41  1  0
 21 42  1  0
M  END
>  <meeko>  (10) 
{"is_sidechain": [false], "free_energy": -6.518, "intermolecular_energy": -11.776, "internal_energy": -0.001}

$$$$
seed-5303
     RDKit          3D

 42 43  0  0  0  0  0  0  0  0999 V2000
  137.2360  125.5760  125.2200 C   0  0  0  0  0  0  0  0  0  0  0  0
  136.2360  124.5590  125.2900 O   0  0  0  0  0  0  0  0  0  0  0  0
  136.2110  123.7370  124.2100 C   0  0  0  0  0  0  0  0  0  0  0  0
  136.8390  122.6960  124.0910 O   0  0  0  0  0  0  0  0  0  0  0  0
  135.2990  124.2720  123.1620 C   0  0  0  0  0  0  0  0  0  0  0  0
  135.6130  124.2240  121.7980 C   0  0  0  0  0  0  0  0  0  0  0  0
  134.7190  124.7370  120.8560 C   0  0  0  0  0  0  0  0  0  0  0  0
  133.5120  125.3010  121.2710 C   0  0  0  0  0  0  0  0  0  0  0  0
  133.1820  125.3620  122.6320 C   0  0  0  0  0  0  0  0  0  0  0  0
  131.8680  125.9600  123.0780 C   0  0  0  0  0  0  0  0  0  0  0  0
  131.6800  125.9580  124.6090 C   0  0  0  0  0  0  0  0  0  0  0  0
  130.9530  127.1320  125.1360 N   0  0  0  0  0  0  0  0  0  0  0  0
  131.3010  127.3910  126.5370 C   0  0  0  0  0  0  0  0  0  0  0  0
  129.4990  126.9360  124.9860 C   0  0  0  0  0  0  0  0  0  0  0  0
  128.8850  127.8050  123.9060 C   0  0  0  0  0  0  0  0  0  0  0  0
  127.8240  127.3310  123.1230 C   0  0  0  0  0  0  0  0  0  0  0  0
  127.2740  128.1310  122.1180 C   0  0  0  0  0  0  0  0  0  0  0  0
  127.7810  129.4090  121.8870 C   0  0  0  0  0  0  0  0  0  0  0  0
  128.8380  129.8890  122.6560 C   0  0  0  0  0  0  0  0  0  0  0  0
  129.3890  129.0920  123.6600 C   0  0  0  0  0  0  0  0  0  0  0  0
  134.0830  124.8410  123.5710 C   0  0  0  0  0  0  0  0  0  0  0  0
  137.5284  125.8734  126.2379 H   0  0  0  0  0  0  0  0  0  0  0  0
  138.1154  125.1893  124.6841 H   0  0  0  0  0  0  0  0  0  0  0  0
  136.8345  126.4487  124.6841 H   0  0  0  0  0  0  0  0  0  0  0  0
  136.5648  123.7818  121.4684 H   0  0  0  0  0  0  0  0  0  0  0  0
  134.9666  124.6965  119.7850 H   0  0  0  0  0  0  0  0  0  0  0  0
  132.8125  125.7018  120.5226 H   0  0  0  0  0  0  0  0  0  0  0  0
  131.8201  126.9999  122.7226 H   0  0  0  0  0  0  0  0  0  0  0  0
  131.0676  125.3368  122.6526 H   0  0  0  0  0  0  0  0  0  0  0  0
  131.1189  125.0532  124.8856 H   0  0  0  0  0  0  0  0  0  0  0  0
  132.6876  125.9889  125.0492 H   0  0  0  0  0  0  0  0  0  0  0  0
  130.5933  126.8643  127.1940 H   0  0  0  0  0  0  0  0  0  0  0  0
  132.3216  127.0310  126.7339 H   0  0  0  0  0  0  0  0  0  0  0  0
  131.2491  128.4720  126.7339 H   0  0  0  0  0  0  0  0  0  0  0  0
  129.3130  125.8816  124.7335 H   0  0  0  0  0  0  0  0  0  0  0  0
  129.0315  127.2225  125.9396 H   0  0  0  0  0  0  0  0  0  0  0  0
  127.4215  126.3228  123.3006 H   0  0  0  0  0  0  0  0  0  0  0  0
  126.4403  127.7521  121.5086 H   0  0  0  0  0  0  0  0  0  0  0  0
  127.3458  130.0385  121.0968 H   0  0  0  0  0  0  0  0  0  0  0  0
  129.2387  130.8968  122.4719 H   0  0  0  0  0  0  0  0  0  0  0  0
  130.2250  129.4751  124.2636 H   0  0  0  0  0  0  0  0  0  0  0  0
  133.8338  124.8786  124.6418 H   0  0  0  0  0  0  0  0  0  0  0  0
  1  2  1  0
  2  3  1  0
  3  4  2  0
  3  5  1  0
  5  6  1  0
  6  7  2  0
  7  8  1  0
  8  9  2  0
  9 10  1  0
 10 11  1  0
 11 12  1  0
 12 13  1  0
 12 14  1  0
 14 15  1  0
 15 16  2  0
 16 17  1  0
 17 18  2  0
 18 19  1  0
 19 20  2  0
  9 21  1  0
 21  5  2  0
 20 15  1  0
  1 22  1  0
  1 23  1  0
  1 24  1  0
  6 25  1  0
  7 26  1  0
  8 27  1  0
 10 28  1  0
 10 29  1  0
 11 30  1  0
 11 31  1  0
 13 32  1  0
 13 33  1  0
 13 34  1  0
 14 35  1  0
 14 36  1  0
 16 37  1  0
 17 38  1  0
 18 39  1  0
 19 40  1  0
 20 41  1  0
 21 42  1  0
M  END
>  <meeko>  (11) 
{"is_sidechain": [false], "free_energy": -6.497, "intermolecular_energy": -11.088, "internal_energy": -0.659}

$$$$
seed-5303
     RDKit          3D

 42 43  0  0  0  0  0  0  0  0999 V2000
  136.8290  125.4470  124.6690 C   0  0  0  0  0  0  0  0  0  0  0  0
  135.9130  124.8730  123.7370 O   0  0  0  0  0  0  0  0  0  0  0  0
  136.0330  123.5280  123.6040 C   0  0  0  0  0  0  0  0  0  0  0  0
  136.8290  122.9520  122.8780 O   0  0  0  0  0  0  0  0  0  0  0  0
  135.0530  122.8220  124.4740 C   0  0  0  0  0  0  0  0  0  0  0  0
  135.3830  121.6670  125.1930 C   0  0  0  0  0  0  0  0  0  0  0  0
  134.4260  121.0470  125.9980 C   0  0  0  0  0  0  0  0  0  0  0  0
  133.1370  121.5760  126.0880 C   0  0  0  0  0  0  0  0  0  0  0  0
  132.7870  122.7290  125.3720 C   0  0  0  0  0  0  0  0  0  0  0  0
  131.3960  123.3090  125.4820 C   0  0  0  0  0  0  0  0  0  0  0  0
  131.3810  124.8330  125.7110 C   0  0  0  0  0  0  0  0  0  0  0  0
  130.6860  125.6020  124.6580 N   0  0  0  0  0  0  0  0  0  0  0  0
  131.6190  126.0490  123.6180 C   0  0  0  0  0  0  0  0  0  0  0  0
  129.9770  126.7510  125.2530 C   0  0  0  0  0  0  0  0  0  0  0  0
  129.2710  127.6170  124.2300 C   0  0  0  0  0  0  0  0  0  0  0  0
  128.1770  127.1240  123.5070 C   0  0  0  0  0  0  0  0  0  0  0  0
  127.5410  127.9220  122.5530 C   0  0  0  0  0  0  0  0  0  0  0  0
  127.9960  129.2180  122.3110 C   0  0  0  0  0  0  0  0  0  0  0  0
  129.0860  129.7170  123.0200 C   0  0  0  0  0  0  0  0  0  0  0  0
  129.7220  128.9210  123.9730 C   0  0  0  0  0  0  0  0  0  0  0  0
  133.7550  123.3480  124.5690 C   0  0  0  0  0  0  0  0  0  0  0  0
  136.4905  125.2349  125.6939 H   0  0  0  0  0  0  0  0  0  0  0  0
  137.8281  125.0132  124.5157 H   0  0  0  0  0  0  0  0  0  0  0  0
  136.8743  126.5353  124.5157 H   0  0  0  0  0  0  0  0  0  0  0  0
  136.3975  121.2476  125.1235 H   0  0  0  0  0  0  0  0  0  0  0  0
  134.6878  120.1399  126.5625 H   0  0  0  0  0  0  0  0  0  0  0  0
  132.3892  121.0833  126.7268 H   0  0  0  0  0  0  0  0  0  0  0  0
  130.8536  123.0917  124.5500 H   0  0  0  0  0  0  0  0  0  0  0  0
  130.9210  122.8456  126.3593 H   0  0  0  0  0  0  0  0  0  0  0  0
  130.8797  125.0319  126.6697 H   0  0  0  0  0  0  0  0  0  0  0  0
  132.4305  125.1624  125.6992 H   0  0  0  0  0  0  0  0  0  0  0  0
  132.5153  126.4784  124.0895 H   0  0  0  0  0  0  0  0  0  0  0  0
  131.9087  125.1919  122.9923 H   0  0  0  0  0  0  0  0  0  0  0  0
  131.1326  126.8119  122.9923 H   0  0  0  0  0  0  0  0  0  0  0  0
  129.2285  126.3693  125.9630 H   0  0  0  0  0  0  0  0  0  0  0  0
  130.7334  127.3803  125.7449 H   0  0  0  0  0  0  0  0  0  0  0  0
  127.8163  126.1014  123.6918 H   0  0  0  0  0  0  0  0  0  0  0  0
  126.6806  127.5279  121.9922 H   0  0  0  0  0  0  0  0  0  0  0  0
  127.4940  129.8460  121.5602 H   0  0  0  0  0  0  0  0  0  0  0  0
  129.4454  130.7388  122.8285 H   0  0  0  0  0  0  0  0  0  0  0  0
  130.5845  129.3189  124.5278 H   0  0  0  0  0  0  0  0  0  0  0  0
  133.4944  124.2567  124.0066 H   0  0  0  0  0  0  0  0  0  0  0  0
  1  2  1  0
  2  3  1  0
  3  4  2  0
  3  5  1  0
  5  6  1  0
  6  7  2  0
  7  8  1  0
  8  9  2  0
  9 10  1  0
 10 11  1  0
 11 12  1  0
 12 13  1  0
 12 14  1  0
 14 15  1  0
 15 16  2  0
 16 17  1  0
 17 18  2  0
 18 19  1  0
 19 20  2  0
  9 21  1  0
 21  5  2  0
 20 15  1  0
  1 22  1  0
  1 23  1  0
  1 24  1  0
  6 25  1  0
  7 26  1  0
  8 27  1  0
 10 28  1  0
 10 29  1  0
 11 30  1  0
 11 31  1  0
 13 32  1  0
 13 33  1  0
 13 34  1  0
 14 35  1  0
 14 36  1  0
 16 37  1  0
 17 38  1  0
 18 39  1  0
 19 40  1  0
 20 41  1  0
 21 42  1  0
M  END
>  <meeko>  (12) 
{"is_sidechain": [false], "free_energy": -6.439, "intermolecular_energy": -11.295, "internal_energy": -0.37}

$$$$
seed-5303
     RDKit          3D

 42 43  0  0  0  0  0  0  0  0999 V2000
  135.6530  121.8310  127.9290 C   0  0  0  0  0  0  0  0  0  0  0  0
  135.6350  122.4340  126.6350 O   0  0  0  0  0  0  0  0  0  0  0  0
  134.6500  121.9700  125.8250 C   0  0  0  0  0  0  0  0  0  0  0  0
  134.5360  120.8210  125.4270 O   0  0  0  0  0  0  0  0  0  0  0  0
  133.7000  123.0620  125.4730 C   0  0  0  0  0  0  0  0  0  0  0  0
  132.9240  123.7210  126.4340 C   0  0  0  0  0  0  0  0  0  0  0  0
  132.0520  124.7410  126.0500 C   0  0  0  0  0  0  0  0  0  0  0  0
  131.9490  125.1040  124.7060 C   0  0  0  0  0  0  0  0  0  0  0  0
  132.7130  124.4530  123.7290 C   0  0  0  0  0  0  0  0  0  0  0  0
  132.6120  124.8590  122.2760 C   0  0  0  0  0  0  0  0  0  0  0  0
  133.6690  125.8980  121.8530 C   0  0  0  0  0  0  0  0  0  0  0  0
  134.8380  125.3280  121.1510 N   0  0  0  0  0  0  0  0  0  0  0  0
  136.0920  125.9000  121.6500 C   0  0  0  0  0  0  0  0  0  0  0  0
  134.7080  125.5410  119.6970 C   0  0  0  0  0  0  0  0  0  0  0  0
  134.7030  124.2520  118.9000 C   0  0  0  0  0  0  0  0  0  0  0  0
  134.0500  124.1780  117.6620 C   0  0  0  0  0  0  0  0  0  0  0  0
  134.0350  122.9820  116.9400 C   0  0  0  0  0  0  0  0  0  0  0  0
  134.6710  121.8500  117.4500 C   0  0  0  0  0  0  0  0  0  0  0  0
  135.3200  121.9100  118.6810 C   0  0  0  0  0  0  0  0  0  0  0  0
  135.3350  123.1050  119.4040 C   0  0  0  0  0  0  0  0  0  0  0  0
  133.5910  123.4330  124.1240 C   0  0  0  0  0  0  0  0  0  0  0  0
  135.6296  122.6157  128.6995 H   0  0  0  0  0  0  0  0  0  0  0  0
  134.7739  121.1796  128.0422 H   0  0  0  0  0  0  0  0  0  0  0  0
  136.5694  121.2332  128.0422 H   0  0  0  0  0  0  0  0  0  0  0  0
  133.0016  123.4345  127.4932 H   0  0  0  0  0  0  0  0  0  0  0  0
  131.4454  125.2593  126.8072 H   0  0  0  0  0  0  0  0  0  0  0  0
  131.2606  125.9097  124.4111 H   0  0  0  0  0  0  0  0  0  0  0  0
  132.7384  123.9607  121.6539 H   0  0  0  0  0  0  0  0  0  0  0  0
  131.6258  125.3264  122.1385 H   0  0  0  0  0  0  0  0  0  0  0  0
  133.1873  126.6262  121.1840 H   0  0  0  0  0  0  0  0  0  0  0  0
  134.0500  126.3534  122.7790 H   0  0  0  0  0  0  0  0  0  0  0  0
  136.0845  125.8966  122.7500 H   0  0  0  0  0  0  0  0  0  0  0  0
  136.9390  125.2992  121.2872 H   0  0  0  0  0  0  0  0  0  0  0  0
  136.1935  126.9335  121.2872 H   0  0  0  0  0  0  0  0  0  0  0  0
  133.7649  126.0737  119.5052 H   0  0  0  0  0  0  0  0  0  0  0  0
  135.5849  126.1207  119.3731 H   0  0  0  0  0  0  0  0  0  0  0  0
  133.5460  125.0675  117.2562 H   0  0  0  0  0  0  0  0  0  0  0  0
  133.5213  122.9329  115.9686 H   0  0  0  0  0  0  0  0  0  0  0  0
  134.6600  120.9095  116.8797 H   0  0  0  0  0  0  0  0  0  0  0  0
  135.8204  121.0169  119.0835 H   0  0  0  0  0  0  0  0  0  0  0  0
  135.8467  123.1473  120.3768 H   0  0  0  0  0  0  0  0  0  0  0  0
  134.2013  122.9179  123.3675 H   0  0  0  0  0  0  0  0  0  0  0  0
  1  2  1  0
  2  3  1  0
  3  4  2  0
  3  5  1  0
  5  6  1  0
  6  7  2  0
  7  8  1  0
  8  9  2  0
  9 10  1  0
 10 11  1  0
 11 12  1  0
 12 13  1  0
 12 14  1  0
 14 15  1  0
 15 16  2  0
 16 17  1  0
 17 18  2  0
 18 19  1  0
 19 20  2  0
  9 21  1  0
 21  5  2  0
 20 15  1  0
  1 22  1  0
  1 23  1  0
  1 24  1  0
  6 25  1  0
  7 26  1  0
  8 27  1  0
 10 28  1  0
 10 29  1  0
 11 30  1  0
 11 31  1  0
 13 32  1  0
 13 33  1  0
 13 34  1  0
 14 35  1  0
 14 36  1  0
 16 37  1  0
 17 38  1  0
 18 39  1  0
 19 40  1  0
 20 41  1  0
 21 42  1  0
M  END
>  <meeko>  (13) 
{"is_sidechain": [false], "free_energy": -6.365, "intermolecular_energy": -10.909, "internal_energy": -0.653}

$$$$
seed-5303
     RDKit          3D

 42 43  0  0  0  0  0  0  0  0999 V2000
  131.6510  128.7930  128.7680 C   0  0  0  0  0  0  0  0  0  0  0  0
  130.7300  127.8780  128.1740 O   0  0  0  0  0  0  0  0  0  0  0  0
  131.1010  127.4460  126.9420 C   0  0  0  0  0  0  0  0  0  0  0  0
  131.3950  128.1590  125.9950 O   0  0  0  0  0  0  0  0  0  0  0  0
  131.1070  125.9580  126.8850 C   0  0  0  0  0  0  0  0  0  0  0  0
  129.9960  125.1880  127.2510 C   0  0  0  0  0  0  0  0  0  0  0  0
  130.0550  123.7950  127.1730 C   0  0  0  0  0  0  0  0  0  0  0  0
  131.2200  123.1670  126.7330 C   0  0  0  0  0  0  0  0  0  0  0  0
  132.3440  123.9200  126.3670 C   0  0  0  0  0  0  0  0  0  0  0  0
  133.6010  123.2390  125.8770 C   0  0  0  0  0  0  0  0  0  0  0  0
  133.8240  123.3810  124.3580 C   0  0  0  0  0  0  0  0  0  0  0  0
  135.1350  123.9500  123.9840 N   0  0  0  0  0  0  0  0  0  0  0  0
  135.9160  124.3170  125.1710 C   0  0  0  0  0  0  0  0  0  0  0  0
  134.9470  125.1170  123.1010 C   0  0  0  0  0  0  0  0  0  0  0  0
  134.9530  124.7620  121.6280 C   0  0  0  0  0  0  0  0  0  0  0  0
  135.6350  123.6280  121.1670 C   0  0  0  0  0  0  0  0  0  0  0  0
  135.6500  123.3150  119.8060 C   0  0  0  0  0  0  0  0  0  0  0  0
  134.9870  124.1360  118.8940 C   0  0  0  0  0  0  0  0  0  0  0  0
  134.3100  125.2690  119.3390 C   0  0  0  0  0  0  0  0  0  0  0  0
  134.2930  125.5820  120.6990 C   0  0  0  0  0  0  0  0  0  0  0  0
  132.2760  125.3190  126.4430 C   0  0  0  0  0  0  0  0  0  0  0  0
  131.5814  128.7239  129.8636 H   0  0  0  0  0  0  0  0  0  0  0  0
  132.6736  128.5429  128.4490 H   0  0  0  0  0  0  0  0  0  0  0  0
  131.4076  129.8172  128.4490 H   0  0  0  0  0  0  0  0  0  0  0  0
  129.0765  125.6807  127.6001 H   0  0  0  0  0  0  0  0  0  0  0  0
  129.1808  123.1917  127.4592 H   0  0  0  0  0  0  0  0  0  0  0  0
  131.2571  122.0693  126.6726 H   0  0  0  0  0  0  0  0  0  0  0  0
  134.4627  123.6812  126.3984 H   0  0  0  0  0  0  0  0  0  0  0  0
  133.4916  122.1653  126.0894 H   0  0  0  0  0  0  0  0  0  0  0  0
  133.7398  122.3830  123.9032 H   0  0  0  0  0  0  0  0  0  0  0  0
  133.0610  124.0844  123.9932 H   0  0  0  0  0  0  0  0  0  0  0  0
  135.3519  124.0519  126.0774 H   0  0  0  0  0  0  0  0  0  0  0  0
  136.8727  123.7742  125.1627 H   0  0  0  0  0  0  0  0  0  0  0  0
  136.1088  125.3999  125.1627 H   0  0  0  0  0  0  0  0  0  0  0  0
  133.9819  125.5859  123.3431 H   0  0  0  0  0  0  0  0  0  0  0  0
  135.7939  125.7969  123.2754 H   0  0  0  0  0  0  0  0  0  0  0  0
  136.1623  122.9797  121.8822 H   0  0  0  0  0  0  0  0  0  0  0  0
  136.1848  122.4208  119.4532 H   0  0  0  0  0  0  0  0  0  0  0  0
  134.9988  123.8885  117.8223 H   0  0  0  0  0  0  0  0  0  0  0  0
  133.7889  125.9169  118.6188 H   0  0  0  0  0  0  0  0  0  0  0  0
  133.7581  126.4785  121.0458 H   0  0  0  0  0  0  0  0  0  0  0  0
  133.1489  125.9223  126.1529 H   0  0  0  0  0  0  0  0  0  0  0  0
  1  2  1  0
  2  3  1  0
  3  4  2  0
  3  5  1  0
  5  6  1  0
  6  7  2  0
  7  8  1  0
  8  9  2  0
  9 10  1  0
 10 11  1  0
 11 12  1  0
 12 13  1  0
 12 14  1  0
 14 15  1  0
 15 16  2  0
 16 17  1  0
 17 18  2  0
 18 19  1  0
 19 20  2  0
  9 21  1  0
 21  5  2  0
 20 15  1  0
  1 22  1  0
  1 23  1  0
  1 24  1  0
  6 25  1  0
  7 26  1  0
  8 27  1  0
 10 28  1  0
 10 29  1  0
 11 30  1  0
 11 31  1  0
 13 32  1  0
 13 33  1  0
 13 34  1  0
 14 35  1  0
 14 36  1  0
 16 37  1  0
 17 38  1  0
 18 39  1  0
 19 40  1  0
 20 41  1  0
 21 42  1  0
M  END
>  <meeko>  (14) 
{"is_sidechain": [false], "free_energy": -6.352, "intermolecular_energy": -10.934, "internal_energy": -0.608}

$$$$
seed-5303
     RDKit          3D

 42 43  0  0  0  0  0  0  0  0999 V2000
  135.0300  121.1120  116.9910 C   0  0  0  0  0  0  0  0  0  0  0  0
  135.4760  122.4620  117.1200 O   0  0  0  0  0  0  0  0  0  0  0  0
  134.4860  123.3430  117.4110 C   0  0  0  0  0  0  0  0  0  0  0  0
  133.5160  123.5830  116.7090 O   0  0  0  0  0  0  0  0  0  0  0  0
  134.7320  123.9970  118.7260 C   0  0  0  0  0  0  0  0  0  0  0  0
  134.2580  125.2790  119.0270 C   0  0  0  0  0  0  0  0  0  0  0  0
  134.5140  125.8440  120.2780 C   0  0  0  0  0  0  0  0  0  0  0  0
  135.2450  125.1330  121.2310 C   0  0  0  0  0  0  0  0  0  0  0  0
  135.7320  123.8500  120.9460 C   0  0  0  0  0  0  0  0  0  0  0  0
  136.5120  123.0760  121.9840 C   0  0  0  0  0  0  0  0  0  0  0  0
  135.7440  122.8770  123.3060 C   0  0  0  0  0  0  0  0  0  0  0  0
  136.5860  122.9560  124.5180 N   0  0  0  0  0  0  0  0  0  0  0  0
  136.3670  121.8030  125.3970 C   0  0  0  0  0  0  0  0  0  0  0  0
  136.3230  124.2180  125.2360 C   0  0  0  0  0  0  0  0  0  0  0  0
  134.8470  124.5300  125.3800 C   0  0  0  0  0  0  0  0  0  0  0  0
  134.2550  125.5580  124.6330 C   0  0  0  0  0  0  0  0  0  0  0  0
  132.8980  125.8510  124.7830 C   0  0  0  0  0  0  0  0  0  0  0  0
  132.1210  125.1220  125.6840 C   0  0  0  0  0  0  0  0  0  0  0  0
  132.6990  124.1020  126.4360 C   0  0  0  0  0  0  0  0  0  0  0  0
  134.0550  123.8080  126.2860 C   0  0  0  0  0  0  0  0  0  0  0  0
  135.4670  123.2880  119.6890 C   0  0  0  0  0  0  0  0  0  0  0  0
  134.8861  120.6763  117.9907 H   0  0  0  0  0  0  0  0  0  0  0  0
  134.0773  121.0915  116.4414 H   0  0  0  0  0  0  0  0  0  0  0  0
  135.7830  120.5280  116.4414 H   0  0  0  0  0  0  0  0  0  0  0  0
  133.6831  125.8422  118.2772 H   0  0  0  0  0  0  0  0  0  0  0  0
  134.1390  126.8511  120.5128 H   0  0  0  0  0  0  0  0  0  0  0  0
  135.4407  125.5839  122.2151 H   0  0  0  0  0  0  0  0  0  0  0  0
  136.7558  122.0864  121.5703 H   0  0  0  0  0  0  0  0  0  0  0  0
  137.4125  123.6631  122.2173 H   0  0  0  0  0  0  0  0  0  0  0  0
  134.9688  123.6545  123.3741 H   0  0  0  0  0  0  0  0  0  0  0  0
  135.3283  121.8590  123.2779 H   0  0  0  0  0  0  0  0  0  0  0  0
  136.4283  122.1255  126.4469 H   0  0  0  0  0  0  0  0  0  0  0  0
  135.3719  121.3769  125.2018 H   0  0  0  0  0  0  0  0  0  0  0  0
  137.1366  121.0417  125.2018 H   0  0  0  0  0  0  0  0  0  0  0  0
  136.7643  124.1463  126.2411 H   0  0  0  0  0  0  0  0  0  0  0  0
  136.7709  125.0292  124.6433 H   0  0  0  0  0  0  0  0  0  0  0  0
  134.8638  126.1379  123.9237 H   0  0  0  0  0  0  0  0  0  0  0  0
  132.4411  126.6572  124.1903 H   0  0  0  0  0  0  0  0  0  0  0  0
  131.0518  125.3529  125.8004 H   0  0  0  0  0  0  0  0  0  0  0  0
  132.0870  123.5285  127.1477 H   0  0  0  0  0  0  0  0  0  0  0  0
  134.5072  123.0028  126.8836 H   0  0  0  0  0  0  0  0  0  0  0  0
  135.8394  122.2798  119.4548 H   0  0  0  0  0  0  0  0  0  0  0  0
  1  2  1  0
  2  3  1  0
  3  4  2  0
  3  5  1  0
  5  6  1  0
  6  7  2  0
  7  8  1  0
  8  9  2  0
  9 10  1  0
 10 11  1  0
 11 12  1  0
 12 13  1  0
 12 14  1  0
 14 15  1  0
 15 16  2  0
 16 17  1  0
 17 18  2  0
 18 19  1  0
 19 20  2  0
  9 21  1  0
 21  5  2  0
 20 15  1  0
  1 22  1  0
  1 23  1  0
  1 24  1  0
  6 25  1  0
  7 26  1  0
  8 27  1  0
 10 28  1  0
 10 29  1  0
 11 30  1  0
 11 31  1  0
 13 32  1  0
 13 33  1  0
 13 34  1  0
 14 35  1  0
 14 36  1  0
 16 37  1  0
 17 38  1  0
 18 39  1  0
 19 40  1  0
 20 41  1  0
 21 42  1  0
M  END
>  <meeko>  (15) 
{"is_sidechain": [false], "free_energy": -6.219, "intermolecular_energy": -11.107, "internal_energy": -0.249}

$$$$
seed-5303
     RDKit          3D

 42 43  0  0  0  0  0  0  0  0999 V2000
  132.7220  124.1110  116.6260 C   0  0  0  0  0  0  0  0  0  0  0  0
  133.8380  124.7060  117.2880 O   0  0  0  0  0  0  0  0  0  0  0  0
  134.7720  123.8130  117.7010 C   0  0  0  0  0  0  0  0  0  0  0  0
  135.4130  123.0660  116.9790 O   0  0  0  0  0  0  0  0  0  0  0  0
  134.9260  123.8570  119.1820 C   0  0  0  0  0  0  0  0  0  0  0  0
  135.7100  122.9330  119.8830 C   0  0  0  0  0  0  0  0  0  0  0  0
  135.8230  123.0230  121.2720 C   0  0  0  0  0  0  0  0  0  0  0  0
  135.1520  124.0320  121.9650 C   0  0  0  0  0  0  0  0  0  0  0  0
  134.3590  124.9630  121.2810 C   0  0  0  0  0  0  0  0  0  0  0  0
  133.6450  126.0640  122.0310 C   0  0  0  0  0  0  0  0  0  0  0  0
  132.6440  125.5430  123.0820 C   0  0  0  0  0  0  0  0  0  0  0  0
  132.8780  126.0490  124.4510 N   0  0  0  0  0  0  0  0  0  0  0  0
  134.2400  125.7520  124.9050 C   0  0  0  0  0  0  0  0  0  0  0  0
  131.8820  125.4790  125.3780 C   0  0  0  0  0  0  0  0  0  0  0  0
  130.8430  126.4840  125.8340 C   0  0  0  0  0  0  0  0  0  0  0  0
  130.9830  127.1530  127.0580 C   0  0  0  0  0  0  0  0  0  0  0  0
  130.0130  128.0660  127.4800 C   0  0  0  0  0  0  0  0  0  0  0  0
  128.8950  128.3150  126.6850 C   0  0  0  0  0  0  0  0  0  0  0  0
  128.7430  127.6520  125.4690 C   0  0  0  0  0  0  0  0  0  0  0  0
  129.7110  126.7400  125.0460 C   0  0  0  0  0  0  0  0  0  0  0  0
  134.2540  124.8690  119.8860 C   0  0  0  0  0  0  0  0  0  0  0  0
  132.0109  123.7319  117.3748 H   0  0  0  0  0  0  0  0  0  0  0  0
  132.2250  124.8638  115.9965 H   0  0  0  0  0  0  0  0  0  0  0  0
  133.0701  123.2788  115.9965 H   0  0  0  0  0  0  0  0  0  0  0  0
  136.2375  122.1354  119.3393 H   0  0  0  0  0  0  0  0  0  0  0  0
  136.4417  122.2977  121.8208 H   0  0  0  0  0  0  0  0  0  0  0  0
  135.2467  124.0969  123.0590 H   0  0  0  0  0  0  0  0  0  0  0  0
  134.3978  126.6814  122.5431 H   0  0  0  0  0  0  0  0  0  0  0  0
  133.0680  126.6381  121.2911 H   0  0  0  0  0  0  0  0  0  0  0  0
  131.6322  125.8436  122.7723 H   0  0  0  0  0  0  0  0  0  0  0  0
  132.7727  124.4514  123.1243 H   0  0  0  0  0  0  0  0  0  0  0  0
  134.2669  125.7461  126.0047 H   0  0  0  0  0  0  0  0  0  0  0  0
  134.5462  124.7660  124.5255 H   0  0  0  0  0  0  0  0  0  0  0  0
  134.9289  126.5210  124.5255 H   0  0  0  0  0  0  0  0  0  0  0  0
  131.3668  124.6502  124.8704 H   0  0  0  0  0  0  0  0  0  0  0  0
  132.4253  125.1431  126.2735 H   0  0  0  0  0  0  0  0  0  0  0  0
  131.8619  126.9580  127.6901 H   0  0  0  0  0  0  0  0  0  0  0  0
  130.1316  128.5888  128.4405 H   0  0  0  0  0  0  0  0  0  0  0  0
  128.1329  129.0350  127.0178 H   0  0  0  0  0  0  0  0  0  0  0  0
  127.8602  127.8474  124.8425 H   0  0  0  0  0  0  0  0  0  0  0  0
  129.5852  126.2173  124.0863 H   0  0  0  0  0  0  0  0  0  0  0  0
  133.6381  125.5964  119.3369 H   0  0  0  0  0  0  0  0  0  0  0  0
  1  2  1  0
  2  3  1  0
  3  4  2  0
  3  5  1  0
  5  6  1  0
  6  7  2  0
  7  8  1  0
  8  9  2  0
  9 10  1  0
 10 11  1  0
 11 12  1  0
 12 13  1  0
 12 14  1  0
 14 15  1  0
 15 16  2  0
 16 17  1  0
 17 18  2  0
 18 19  1  0
 19 20  2  0
  9 21  1  0
 21  5  2  0
 20 15  1  0
  1 22  1  0
  1 23  1  0
  1 24  1  0
  6 25  1  0
  7 26  1  0
  8 27  1  0
 10 28  1  0
 10 29  1  0
 11 30  1  0
 11 31  1  0
 13 32  1  0
 13 33  1  0
 13 34  1  0
 14 35  1  0
 14 36  1  0
 16 37  1  0
 17 38  1  0
 18 39  1  0
 19 40  1  0
 20 41  1  0
 21 42  1  0
M  END
>  <meeko>  (16) 
{"is_sidechain": [false], "free_energy": -6.139, "intermolecular_energy": -10.841, "internal_energy": -0.402}

$$$$
seed-5303
     RDKit          3D

 42 43  0  0  0  0  0  0  0  0999 V2000
  127.7500  126.1760  127.7790 C   0  0  0  0  0  0  0  0  0  0  0  0
  128.8900  125.4330  128.2130 O   0  0  0  0  0  0  0  0  0  0  0  0
  129.0810  124.2730  127.5360 C   0  0  0  0  0  0  0  0  0  0  0  0
  128.3420  123.3010  127.5650 O   0  0  0  0  0  0  0  0  0  0  0  0
  130.3340  124.3310  126.7330 C   0  0  0  0  0  0  0  0  0  0  0  0
  130.6610  125.4310  125.9310 C   0  0  0  0  0  0  0  0  0  0  0  0
  131.8510  125.4350  125.2010 C   0  0  0  0  0  0  0  0  0  0  0  0
  132.7160  124.3420  125.2670 C   0  0  0  0  0  0  0  0  0  0  0  0
  132.4030  123.2300  126.0600 C   0  0  0  0  0  0  0  0  0  0  0  0
  133.3490  122.0530  126.1410 C   0  0  0  0  0  0  0  0  0  0  0  0
  134.7460  122.4230  126.6780 C   0  0  0  0  0  0  0  0  0  0  0  0
  135.8680  121.8760  125.8860 N   0  0  0  0  0  0  0  0  0  0  0  0
  136.7110  120.9900  126.6960 C   0  0  0  0  0  0  0  0  0  0  0  0
  136.6650  122.9760  125.3120 C   0  0  0  0  0  0  0  0  0  0  0  0
  136.0820  123.5340  124.0290 C   0  0  0  0  0  0  0  0  0  0  0  0
  135.5610  122.6800  123.0480 C   0  0  0  0  0  0  0  0  0  0  0  0
  135.0400  123.2000  121.8610 C   0  0  0  0  0  0  0  0  0  0  0  0
  135.0380  124.5780  121.6440 C   0  0  0  0  0  0  0  0  0  0  0  0
  135.5570  125.4370  122.6100 C   0  0  0  0  0  0  0  0  0  0  0  0
  136.0780  124.9180  123.7960 C   0  0  0  0  0  0  0  0  0  0  0  0
  131.2090  123.2350  126.7930 C   0  0  0  0  0  0  0  0  0  0  0  0
  127.1933  126.5388  128.6556 H   0  0  0  0  0  0  0  0  0  0  0  0
  128.0798  127.0332  127.1736 H   0  0  0  0  0  0  0  0  0  0  0  0
  127.0989  125.5283  127.1736 H   0  0  0  0  0  0  0  0  0  0  0  0
  129.9797  126.2929  125.8760 H   0  0  0  0  0  0  0  0  0  0  0  0
  132.1071  126.3010  124.5729 H   0  0  0  0  0  0  0  0  0  0  0  0
  133.6529  124.3535  124.6908 H   0  0  0  0  0  0  0  0  0  0  0  0
  132.9084  121.2974  126.8080 H   0  0  0  0  0  0  0  0  0  0  0  0
  133.4854  121.6763  125.1166 H   0  0  0  0  0  0  0  0  0  0  0  0
  134.8325  123.5196  126.6858 H   0  0  0  0  0  0  0  0  0  0  0  0
  134.8244  121.9802  127.6819 H   0  0  0  0  0  0  0  0  0  0  0  0
  136.5270  121.1834  127.7631 H   0  0  0  0  0  0  0  0  0  0  0  0
  136.4684  119.9420  126.4661 H   0  0  0  0  0  0  0  0  0  0  0  0
  137.7698  121.1802  126.4661 H   0  0  0  0  0  0  0  0  0  0  0  0
  136.7222  123.7883  126.0515 H   0  0  0  0  0  0  0  0  0  0  0  0
  137.6563  122.5665  125.0678 H   0  0  0  0  0  0  0  0  0  0  0  0
  135.5623  121.5926  123.2138 H   0  0  0  0  0  0  0  0  0  0  0  0
  134.6310  122.5226  121.0969 H   0  0  0  0  0  0  0  0  0  0  0  0
  134.6263  124.9866  120.7094 H   0  0  0  0  0  0  0  0  0  0  0  0
  135.5562  126.5235  122.4381 H   0  0  0  0  0  0  0  0  0  0  0  0
  136.4892  125.5997  124.5550 H   0  0  0  0  0  0  0  0  0  0  0  0
  130.9543  122.3699  127.4229 H   0  0  0  0  0  0  0  0  0  0  0  0
  1  2  1  0
  2  3  1  0
  3  4  2  0
  3  5  1  0
  5  6  1  0
  6  7  2  0
  7  8  1  0
  8  9  2  0
  9 10  1  0
 10 11  1  0
 11 12  1  0
 12 13  1  0
 12 14  1  0
 14 15  1  0
 15 16  2  0
 16 17  1  0
 17 18  2  0
 18 19  1  0
 19 20  2  0
  9 21  1  0
 21  5  2  0
 20 15  1  0
  1 22  1  0
  1 23  1  0
  1 24  1  0
  6 25  1  0
  7 26  1  0
  8 27  1  0
 10 28  1  0
 10 29  1  0
 11 30  1  0
 11 31  1  0
 13 32  1  0
 13 33  1  0
 13 34  1  0
 14 35  1  0
 14 36  1  0
 16 37  1  0
 17 38  1  0
 18 39  1  0
 19 40  1  0
 20 41  1  0
 21 42  1  0
M  END
>  <meeko>  (17) 
{"is_sidechain": [false], "free_energy": -6.029, "intermolecular_energy": -9.889, "internal_energy": -1.198}

$$$$
seed-5303
     RDKit          3D

 42 43  0  0  0  0  0  0  0  0999 V2000
  137.3370  126.0090  124.8850 C   0  0  0  0  0  0  0  0  0  0  0  0
  136.7320  125.2030  123.8740 O   0  0  0  0  0  0  0  0  0  0  0  0
  136.2030  125.9140  122.8460 C   0  0  0  0  0  0  0  0  0  0  0  0
  136.8250  126.6470  122.0920 O   0  0  0  0  0  0  0  0  0  0  0  0
  134.7350  125.6860  122.7470 C   0  0  0  0  0  0  0  0  0  0  0  0
  134.1350  125.1400  121.6060 C   0  0  0  0  0  0  0  0  0  0  0  0
  132.7540  124.9430  121.5690 C   0  0  0  0  0  0  0  0  0  0  0  0
  131.9660  125.2920  122.6670 C   0  0  0  0  0  0  0  0  0  0  0  0
  132.5480  125.8440  123.8160 C   0  0  0  0  0  0  0  0  0  0  0  0
  131.6960  126.2080  125.0100 C   0  0  0  0  0  0  0  0  0  0  0  0
  131.8400  125.2250  126.1900 C   0  0  0  0  0  0  0  0  0  0  0  0
  131.4140  123.8430  125.8880 N   0  0  0  0  0  0  0  0  0  0  0  0
  129.9720  123.6710  126.0950 C   0  0  0  0  0  0  0  0  0  0  0  0
  132.1790  122.8870  126.7110 C   0  0  0  0  0  0  0  0  0  0  0  0
  133.5090  122.4980  126.0990 C   0  0  0  0  0  0  0  0  0  0  0  0
  133.7280  122.6230  124.7210 C   0  0  0  0  0  0  0  0  0  0  0  0
  134.9510  122.2470  124.1610 C   0  0  0  0  0  0  0  0  0  0  0  0
  135.9650  121.7410  124.9740 C   0  0  0  0  0  0  0  0  0  0  0  0
  135.7580  121.6080  126.3450 C   0  0  0  0  0  0  0  0  0  0  0  0
  134.5360  121.9830  126.9050 C   0  0  0  0  0  0  0  0  0  0  0  0
  133.9370  126.0340  123.8480 C   0  0  0  0  0  0  0  0  0  0  0  0
  137.0515  125.6286  125.8769 H   0  0  0  0  0  0  0  0  0  0  0  0
  138.4312  125.9706  124.7786 H   0  0  0  0  0  0  0  0  0  0  0  0
  136.9946  127.0489  124.7786 H   0  0  0  0  0  0  0  0  0  0  0  0
  134.7526  124.8661  120.7380 H   0  0  0  0  0  0  0  0  0  0  0  0
  132.2852  124.5116  120.6723 H   0  0  0  0  0  0  0  0  0  0  0  0
  130.8783  125.1323  122.6300 H   0  0  0  0  0  0  0  0  0  0  0  0
  131.9890  127.2108  125.3543 H   0  0  0  0  0  0  0  0  0  0  0  0
  130.6465  126.1699  124.6828 H   0  0  0  0  0  0  0  0  0  0  0  0
  132.8978  125.2011  126.4908 H   0  0  0  0  0  0  0  0  0  0  0  0
  131.1760  125.5913  126.9868 H   0  0  0  0  0  0  0  0  0  0  0  0
  129.7569  123.6453  127.1735 H   0  0  0  0  0  0  0  0  0  0  0  0
  129.4325  124.5112  125.6334 H   0  0  0  0  0  0  0  0  0  0  0  0
  129.6453  122.7275  125.6334 H   0  0  0  0  0  0  0  0  0  0  0  0
  132.3675  123.3449  127.6932 H   0  0  0  0  0  0  0  0  0  0  0  0
  131.5763  121.9701  126.7893 H   0  0  0  0  0  0  0  0  0  0  0  0
  132.9309  123.0202  124.0753 H   0  0  0  0  0  0  0  0  0  0  0  0
  135.1146  122.3500  123.0781 H   0  0  0  0  0  0  0  0  0  0  0  0
  136.9285  121.4468  124.5324 H   0  0  0  0  0  0  0  0  0  0  0  0
  136.5573  121.2076  126.9859 H   0  0  0  0  0  0  0  0  0  0  0  0
  134.3763  121.8740  127.9879 H   0  0  0  0  0  0  0  0  0  0  0  0
  134.4067  126.4608  124.7465 H   0  0  0  0  0  0  0  0  0  0  0  0
  1  2  1  0
  2  3  1  0
  3  4  2  0
  3  5  1  0
  5  6  1  0
  6  7  2  0
  7  8  1  0
  8  9  2  0
  9 10  1  0
 10 11  1  0
 11 12  1  0
 12 13  1  0
 12 14  1  0
 14 15  1  0
 15 16  2  0
 16 17  1  0
 17 18  2  0
 18 19  1  0
 19 20  2  0
  9 21  1  0
 21  5  2  0
 20 15  1  0
  1 22  1  0
  1 23  1  0
  1 24  1  0
  6 25  1  0
  7 26  1  0
  8 27  1  0
 10 28  1  0
 10 29  1  0
 11 30  1  0
 11 31  1  0
 13 32  1  0
 13 33  1  0
 13 34  1  0
 14 35  1  0
 14 36  1  0
 16 37  1  0
 17 38  1  0
 18 39  1  0
 19 40  1  0
 20 41  1  0
 21 42  1  0
M  END
>  <meeko>  (18) 
{"is_sidechain": [false], "free_energy": -5.997, "intermolecular_energy": -9.538, "internal_energy": -1.504}

$$$$
seed-5303
     RDKit          3D

 42 43  0  0  0  0  0  0  0  0999 V2000
  128.0170  127.9000  123.2500 C   0  0  0  0  0  0  0  0  0  0  0  0
  128.4060  126.7630  124.0210 O   0  0  0  0  0  0  0  0  0  0  0  0
  129.4720  126.9860  124.8310 C   0  0  0  0  0  0  0  0  0  0  0  0
  130.1460  128.0030  124.8580 O   0  0  0  0  0  0  0  0  0  0  0  0
  129.7240  125.8080  125.7070 C   0  0  0  0  0  0  0  0  0  0  0  0
  128.8680  125.4570  126.7580 C   0  0  0  0  0  0  0  0  0  0  0  0
  129.1500  124.3390  127.5460 C   0  0  0  0  0  0  0  0  0  0  0  0
  130.2850  123.5700  127.2890 C   0  0  0  0  0  0  0  0  0  0  0  0
  131.1560  123.9080  126.2450 C   0  0  0  0  0  0  0  0  0  0  0  0
  132.3780  123.0650  125.9590 C   0  0  0  0  0  0  0  0  0  0  0  0
  133.6710  123.6260  126.5840 C   0  0  0  0  0  0  0  0  0  0  0  0
  134.8940  122.8730  126.2350 N   0  0  0  0  0  0  0  0  0  0  0  0
  135.4400  122.1700  127.4000 C   0  0  0  0  0  0  0  0  0  0  0  0
  135.9000  123.7830  125.6540 C   0  0  0  0  0  0  0  0  0  0  0  0
  135.8360  123.8620  124.1430 C   0  0  0  0  0  0  0  0  0  0  0  0
  136.1890  125.0410  123.4710 C   0  0  0  0  0  0  0  0  0  0  0  0
  136.1120  125.1120  122.0790 C   0  0  0  0  0  0  0  0  0  0  0  0
  135.6790  124.0080  121.3450 C   0  0  0  0  0  0  0  0  0  0  0  0
  135.3210  122.8320  122.0010 C   0  0  0  0  0  0  0  0  0  0  0  0
  135.3980  122.7590  123.3930 C   0  0  0  0  0  0  0  0  0  0  0  0
  130.8640  125.0290  125.4550 C   0  0  0  0  0  0  0  0  0  0  0  0
  127.7358  128.7219  123.9249 H   0  0  0  0  0  0  0  0  0  0  0  0
  128.8575  128.2178  122.6156 H   0  0  0  0  0  0  0  0  0  0  0  0
  127.1580  127.6363  122.6156 H   0  0  0  0  0  0  0  0  0  0  0  0
  127.9727  126.0623  126.9632 H   0  0  0  0  0  0  0  0  0  0  0  0
  128.4759  124.0644  128.3707 H   0  0  0  0  0  0  0  0  0  0  0  0
  130.4984  122.6892  127.9124 H   0  0  0  0  0  0  0  0  0  0  0  0
  132.2065  122.0554  126.3606 H   0  0  0  0  0  0  0  0  0  0  0  0
  132.5207  123.0609  124.8683 H   0  0  0  0  0  0  0  0  0  0  0  0
  133.7965  124.6638  126.2417 H   0  0  0  0  0  0  0  0  0  0  0  0
  133.5532  123.5457  127.6747 H   0  0  0  0  0  0  0  0  0  0  0  0
  135.0711  122.6450  128.3210 H   0  0  0  0  0  0  0  0  0  0  0  0
  135.1200  121.1178  127.3765 H   0  0  0  0  0  0  0  0  0  0  0  0
  136.5386  122.2197  127.3765 H   0  0  0  0  0  0  0  0  0  0  0  0
  135.7366  124.7908  126.0634 H   0  0  0  0  0  0  0  0  0  0  0  0
  136.8906  123.3837  125.9173 H   0  0  0  0  0  0  0  0  0  0  0  0
  136.5289  125.9159  124.0446 H   0  0  0  0  0  0  0  0  0  0  0  0
  136.3933  126.0403  121.5602 H   0  0  0  0  0  0  0  0  0  0  0  0
  135.6201  124.0657  120.2481 H   0  0  0  0  0  0  0  0  0  0  0  0
  134.9779  121.9616  121.4224 H   0  0  0  0  0  0  0  0  0  0  0  0
  135.1130  121.8290  123.9067 H   0  0  0  0  0  0  0  0  0  0  0  0
  131.5363  125.3011  124.6280 H   0  0  0  0  0  0  0  0  0  0  0  0
  1  2  1  0
  2  3  1  0
  3  4  2  0
  3  5  1  0
  5  6  1  0
  6  7  2  0
  7  8  1  0
  8  9  2  0
  9 10  1  0
 10 11  1  0
 11 12  1  0
 12 13  1  0
 12 14  1  0
 14 15  1  0
 15 16  2  0
 16 17  1  0
 17 18  2  0
 18 19  1  0
 19 20  2  0
  9 21  1  0
 21  5  2  0
 20 15  1  0
  1 22  1  0
  1 23  1  0
  1 24  1  0
  6 25  1  0
  7 26  1  0
  8 27  1  0
 10 28  1  0
 10 29  1  0
 11 30  1  0
 11 31  1  0
 13 32  1  0
 13 33  1  0
 13 34  1  0
 14 35  1  0
 14 36  1  0
 16 37  1  0
 17 38  1  0
 18 39  1  0
 19 40  1  0
 20 41  1  0
 21 42  1  0
M  END
>  <meeko>  (19) 
{"is_sidechain": [false], "free_energy": -5.936, "intermolecular_energy": -10.3, "internal_energy": -0.657}

$$$$
seed-5303
     RDKit          3D

 42 43  0  0  0  0  0  0  0  0999 V2000
  129.7930  127.5220  127.8050 C   0  0  0  0  0  0  0  0  0  0  0  0
  130.2380  127.6730  126.4560 O   0  0  0  0  0  0  0  0  0  0  0  0
  131.5770  127.5230  126.2990 C   0  0  0  0  0  0  0  0  0  0  0  0
  132.4370  128.2430  126.7830 O   0  0  0  0  0  0  0  0  0  0  0  0
  131.8790  126.3430  125.4430 C   0  0  0  0  0  0  0  0  0  0  0  0
  131.6440  126.3360  124.0630 C   0  0  0  0  0  0  0  0  0  0  0  0
  131.9500  125.2040  123.3070 C   0  0  0  0  0  0  0  0  0  0  0  0
  132.4890  124.0740  123.9240 C   0  0  0  0  0  0  0  0  0  0  0  0
  132.7260  124.0600  125.3050 C   0  0  0  0  0  0  0  0  0  0  0  0
  133.3240  122.8400  125.9700 C   0  0  0  0  0  0  0  0  0  0  0  0
  134.3120  122.0720  125.0700 C   0  0  0  0  0  0  0  0  0  0  0  0
  135.6960  122.0270  125.5840 N   0  0  0  0  0  0  0  0  0  0  0  0
  135.7260  121.6950  127.0120 C   0  0  0  0  0  0  0  0  0  0  0  0
  136.3720  123.3140  125.3320 C   0  0  0  0  0  0  0  0  0  0  0  0
  136.1350  123.8520  123.9350 C   0  0  0  0  0  0  0  0  0  0  0  0
  135.9130  125.2200  123.7230 C   0  0  0  0  0  0  0  0  0  0  0  0
  135.6790  125.7070  122.4350 C   0  0  0  0  0  0  0  0  0  0  0  0
  135.6620  124.8320  121.3490 C   0  0  0  0  0  0  0  0  0  0  0  0
  135.8770  123.4700  121.5480 C   0  0  0  0  0  0  0  0  0  0  0  0
  136.1110  122.9820  122.8340 C   0  0  0  0  0  0  0  0  0  0  0  0
  132.4210  125.2030  126.0570 C   0  0  0  0  0  0  0  0  0  0  0  0
  130.6062  127.7979  128.4924 H   0  0  0  0  0  0  0  0  0  0  0  0
  128.9265  128.1764  127.9807 H   0  0  0  0  0  0  0  0  0  0  0  0
  129.5036  126.4754  127.9807 H   0  0  0  0  0  0  0  0  0  0  0  0
  131.2175  127.2242  123.5740 H   0  0  0  0  0  0  0  0  0  0  0  0
  131.7661  125.2021  122.2225 H   0  0  0  0  0  0  0  0  0  0  0  0
  132.7299  123.1863  123.3207 H   0  0  0  0  0  0  0  0  0  0  0  0
  133.8574  123.1635  126.8760 H   0  0  0  0  0  0  0  0  0  0  0  0
  132.4936  122.1553  126.1972 H   0  0  0  0  0  0  0  0  0  0  0  0
  133.9500  121.0386  124.9650 H   0  0  0  0  0  0  0  0  0  0  0  0
  134.3498  122.6120  124.1124 H   0  0  0  0  0  0  0  0  0  0  0  0
  135.6426  122.6178  127.6048 H   0  0  0  0  0  0  0  0  0  0  0  0
  134.8844  121.0282  127.2512 H   0  0  0  0  0  0  0  0  0  0  0  0
  136.6734  121.1899  127.2512 H   0  0  0  0  0  0  0  0  0  0  0  0
  136.0000  124.0519  126.0581 H   0  0  0  0  0  0  0  0  0  0  0  0
  137.4532  123.1399  125.4351 H   0  0  0  0  0  0  0  0  0  0  0  0
  135.9232  125.9141  124.5763 H   0  0  0  0  0  0  0  0  0  0  0  0
  135.5079  126.7821  122.2769 H   0  0  0  0  0  0  0  0  0  0  0  0
  135.4788  125.2174  120.3351 H   0  0  0  0  0  0  0  0  0  0  0  0
  135.8623  122.7797  120.6917 H   0  0  0  0  0  0  0  0  0  0  0  0
  136.2782  121.9055  122.9863 H   0  0  0  0  0  0  0  0  0  0  0  0
  132.6086  125.2066  127.1409 H   0  0  0  0  0  0  0  0  0  0  0  0
  1  2  1  0
  2  3  1  0
  3  4  2  0
  3  5  1  0
  5  6  1  0
  6  7  2  0
  7  8  1  0
  8  9  2  0
  9 10  1  0
 10 11  1  0
 11 12  1  0
 12 13  1  0
 12 14  1  0
 14 15  1  0
 15 16  2  0
 16 17  1  0
 17 18  2  0
 18 19  1  0
 19 20  2  0
  9 21  1  0
 21  5  2  0
 20 15  1  0
  1 22  1  0
  1 23  1  0
  1 24  1  0
  6 25  1  0
  7 26  1  0
  8 27  1  0
 10 28  1  0
 10 29  1  0
 11 30  1  0
 11 31  1  0
 13 32  1  0
 13 33  1  0
 13 34  1  0
 14 35  1  0
 14 36  1  0
 16 37  1  0
 17 38  1  0
 18 39  1  0
 19 40  1  0
 20 41  1  0
 21 42  1  0
M  END
>  <meeko>  (20) 
{"is_sidechain": [false], "free_energy": -5.923, "intermolecular_energy": -9.643, "internal_energy": -1.296}

$$$$
