benzyl_phenylacetate
     RDKit          3D

 31 32  0  0  0  0  0  0  0  0999 V2000
   -1.2213   -2.4535    2.8694 O   0  0  0  0  0  0  0  0  0  0  0  0
   -1.4011   -2.3655    1.6615 C   0  0  0  0  0  0  0  0  0  0  0  0
   -2.6041   -1.7114    1.0247 C   0  0  0  0  0  0  0  0  0  0  0  0
   -2.5196   -0.2070    1.0552 C   0  0  0  0  0  0  0  0  0  0  0  0
   -1.6387    0.4699    0.1989 C   0  0  0  0  0  0  0  0  0  0  0  0
   -1.5444    1.8615    0.2374 C   0  0  0  0  0  0  0  0  0  0  0  0
   -2.3274    2.5895    1.1309 C   0  0  0  0  0  0  0  0  0  0  0  0
   -3.2022    1.9264    1.9897 C   0  0  0  0  0  0  0  0  0  0  0  0
   -3.2969    0.5342    1.9549 C   0  0  0  0  0  0  0  0  0  0  0  0
   -0.5435   -2.8048    0.6995 O   0  0  0  0  0  0  0  0  0  0  0  0
    0.7275   -3.2751    1.1612 C   0  0  0  0  0  0  0  0  0  0  0  0
    1.7517   -2.1996    0.9083 C   0  0  0  0  0  0  0  0  0  0  0  0
    2.4807   -2.1719   -0.2886 C   0  0  0  0  0  0  0  0  0  0  0  0
    3.4047   -1.1538   -0.5301 C   0  0  0  0  0  0  0  0  0  0  0  0
    3.6015   -0.1501    0.4168 C   0  0  0  0  0  0  0  0  0  0  0  0
    2.8730   -0.1610    1.6046 C   0  0  0  0  0  0  0  0  0  0  0  0
    1.9504   -1.1790    1.8490 C   0  0  0  0  0  0  0  0  0  0  0  0
   -2.7165   -2.0571   -0.0104 H   0  0  0  0  0  0  0  0  0  0  0  0
   -3.4978   -2.0709    1.5489 H   0  0  0  0  0  0  0  0  0  0  0  0
   -1.0116   -0.0831   -0.4984 H   0  0  0  0  0  0  0  0  0  0  0  0
   -0.8552    2.3764   -0.4268 H   0  0  0  0  0  0  0  0  0  0  0  0
   -2.2518    3.6731    1.1621 H   0  0  0  0  0  0  0  0  0  0  0  0
   -3.8076    2.4937    2.6918 H   0  0  0  0  0  0  0  0  0  0  0  0
   -3.9765    0.0330    2.6407 H   0  0  0  0  0  0  0  0  0  0  0  0
    0.9743   -4.1752    0.5867 H   0  0  0  0  0  0  0  0  0  0  0  0
    0.7245   -3.5774    2.2153 H   0  0  0  0  0  0  0  0  0  0  0  0
    2.3294   -2.9412   -1.0424 H   0  0  0  0  0  0  0  0  0  0  0  0
    3.9683   -1.1410   -1.4593 H   0  0  0  0  0  0  0  0  0  0  0  0
    4.3190    0.6438    0.2273 H   0  0  0  0  0  0  0  0  0  0  0  0
    3.0182    0.6258    2.3403 H   0  0  0  0  0  0  0  0  0  0  0  0
    1.3789   -1.1685    2.7760 H   0  0  0  0  0  0  0  0  0  0  0  0
  1  2  2  0
  2  3  1  0
  3  4  1  0
  4  5  2  0
  5  6  1  0
  6  7  2  0
  7  8  1  0
  8  9  2  0
  2 10  1  0
 10 11  1  0
 11 12  1  0
 12 13  2  0
 13 14  1  0
 14 15  2  0
 15 16  1  0
 16 17  2  0
  9  4  1  0
 17 12  1  0
  3 18  1  0
  3 19  1  0
  5 20  1  0
  6 21  1  0
  7 22  1  0
  8 23  1  0
  9 24  1  0
 11 25  1  0
 11 26  1  0
 13 27  1  0
 14 28  1  0
 15 29  1  0
 16 30  1  0
 17 31  1  0
M  END
>  <conformer_method>  (1) 
RDKit ETKDGv3 useRandomCoords=True then MMFF94 (UFF only if MMFF unavailable)

>  <random_seed>  (1) 
1904

>  <source>  (1) 
preselected comparison graph

$$$$
