diphenhydramine_neutral
     RDKit          3D

 40 41  0  0  0  0  0  0  0  0999 V2000
    1.2649    2.3120   -3.1343 C   0  0  0  0  0  0  0  0  0  0  0  0
    1.7577    1.9713   -1.7993 N   0  0  0  0  0  0  0  0  0  0  0  0
    3.1279    1.4659   -1.8812 C   0  0  0  0  0  0  0  0  0  0  0  0
    1.6489    3.1356   -0.8997 C   0  0  0  0  0  0  0  0  0  0  0  0
    2.0398    2.8806    0.5731 C   0  0  0  0  0  0  0  0  0  0  0  0
    1.4980    1.6842    1.1354 O   0  0  0  0  0  0  0  0  0  0  0  0
    0.0768    1.6998    1.3453 C   0  0  0  0  0  0  0  0  0  0  0  0
   -0.4490    0.2623    1.3277 C   0  0  0  0  0  0  0  0  0  0  0  0
    0.1689   -0.7021    0.5111 C   0  0  0  0  0  0  0  0  0  0  0  0
   -0.3191   -2.0088    0.4381 C   0  0  0  0  0  0  0  0  0  0  0  0
   -1.4455   -2.3735    1.1697 C   0  0  0  0  0  0  0  0  0  0  0  0
   -2.0875   -1.4300    1.9670 C   0  0  0  0  0  0  0  0  0  0  0  0
   -1.5998   -0.1220    2.0388 C   0  0  0  0  0  0  0  0  0  0  0  0
   -0.2078    2.4632    2.6333 C   0  0  0  0  0  0  0  0  0  0  0  0
   -1.1547    3.5001    2.6505 C   0  0  0  0  0  0  0  0  0  0  0  0
   -1.4205    4.1977    3.8303 C   0  0  0  0  0  0  0  0  0  0  0  0
   -0.7453    3.8681    5.0043 C   0  0  0  0  0  0  0  0  0  0  0  0
    0.1962    2.8408    5.0022 C   0  0  0  0  0  0  0  0  0  0  0  0
    0.4637    2.1420    3.8247 C   0  0  0  0  0  0  0  0  0  0  0  0
    1.8543    3.1093   -3.6014 H   0  0  0  0  0  0  0  0  0  0  0  0
    0.2193    2.6366   -3.0886 H   0  0  0  0  0  0  0  0  0  0  0  0
    1.2895    1.4346   -3.7903 H   0  0  0  0  0  0  0  0  0  0  0  0
    3.4704    1.0882   -0.9126 H   0  0  0  0  0  0  0  0  0  0  0  0
    3.1837    0.6167   -2.5721 H   0  0  0  0  0  0  0  0  0  0  0  0
    3.8304    2.2335   -2.2250 H   0  0  0  0  0  0  0  0  0  0  0  0
    2.2504    3.9732   -1.2772 H   0  0  0  0  0  0  0  0  0  0  0  0
    0.6073    3.4787   -0.9115 H   0  0  0  0  0  0  0  0  0  0  0  0
    1.7625    3.7451    1.1871 H   0  0  0  0  0  0  0  0  0  0  0  0
    3.1294    2.7922    0.6459 H   0  0  0  0  0  0  0  0  0  0  0  0
   -0.4179    2.2005    0.5052 H   0  0  0  0  0  0  0  0  0  0  0  0
    1.0428   -0.4328   -0.0805 H   0  0  0  0  0  0  0  0  0  0  0  0
    0.1812   -2.7371   -0.1941 H   0  0  0  0  0  0  0  0  0  0  0  0
   -1.8254   -3.3897    1.1140 H   0  0  0  0  0  0  0  0  0  0  0  0
   -2.9718   -1.7091    2.5338 H   0  0  0  0  0  0  0  0  0  0  0  0
   -2.1320    0.5920    2.6634 H   0  0  0  0  0  0  0  0  0  0  0  0
   -1.6945    3.7672    1.7448 H   0  0  0  0  0  0  0  0  0  0  0  0
   -2.1563    4.9977    3.8345 H   0  0  0  0  0  0  0  0  0  0  0  0
   -0.9536    4.4110    5.9225 H   0  0  0  0  0  0  0  0  0  0  0  0
    0.7227    2.5812    5.9168 H   0  0  0  0  0  0  0  0  0  0  0  0
    1.1999    1.3396    3.8298 H   0  0  0  0  0  0  0  0  0  0  0  0
  1  2  1  0
  2  3  1  0
  2  4  1  0
  4  5  1  0
  5  6  1  0
  6  7  1  0
  7  8  1  0
  8  9  2  0
  9 10  1  0
 10 11  2  0
 11 12  1  0
 12 13  2  0
  7 14  1  0
 14 15  2  0
 15 16  1  0
 16 17  2  0
 17 18  1  0
 18 19  2  0
 13  8  1  0
 19 14  1  0
  1 20  1  0
  1 21  1  0
  1 22  1  0
  3 23  1  0
  3 24  1  0
  3 25  1  0
  4 26  1  0
  4 27  1  0
  5 28  1  0
  5 29  1  0
  7 30  1  0
  9 31  1  0
 10 32  1  0
 11 33  1  0
 12 34  1  0
 13 35  1  0
 15 36  1  0
 16 37  1  0
 17 38  1  0
 18 39  1  0
 19 40  1  0
M  END
>  <conformer_method>  (1) 
RDKit ETKDGv3 useRandomCoords=True then MMFF94 (UFF only if MMFF unavailable)

>  <random_seed>  (1) 
1901

>  <source>  (1) 
preselected comparison graph

$$$$
