diphenhydramine_protonated
     RDKit          3D

 41 42  0  0  0  0  0  0  0  0999 V2000
   -2.1304   -1.0739    3.7728 C   0  0  0  0  0  0  0  0  0  0  0  0
   -1.0024   -1.1899    2.7930 N   0  0  0  0  0  0  0  0  0  0  0  0
    0.1977   -1.8573    3.3936 C   0  0  0  0  0  0  0  0  0  0  0  0
   -1.4047   -1.7982    1.4596 C   0  0  0  0  0  0  0  0  0  0  0  0
   -2.2184   -0.7839    0.6438 C   0  0  0  0  0  0  0  0  0  0  0  0
   -1.6318    0.5177    0.7423 O   0  0  0  0  0  0  0  0  0  0  0  0
   -0.6188    0.7985   -0.2468 C   0  0  0  0  0  0  0  0  0  0  0  0
   -0.8979    2.1186   -0.9479 C   0  0  0  0  0  0  0  0  0  0  0  0
   -0.1052    2.4994   -2.0459 C   0  0  0  0  0  0  0  0  0  0  0  0
   -0.3376    3.7031   -2.7141 C   0  0  0  0  0  0  0  0  0  0  0  0
   -1.3656    4.5443   -2.2979 C   0  0  0  0  0  0  0  0  0  0  0  0
   -2.1613    4.1840   -1.2135 C   0  0  0  0  0  0  0  0  0  0  0  0
   -1.9301    2.9806   -0.5429 C   0  0  0  0  0  0  0  0  0  0  0  0
    0.7146    0.7736    0.4827 C   0  0  0  0  0  0  0  0  0  0  0  0
    1.7201   -0.1267    0.0956 C   0  0  0  0  0  0  0  0  0  0  0  0
    2.9364   -0.1677    0.7798 C   0  0  0  0  0  0  0  0  0  0  0  0
    3.1635    0.6899    1.8545 C   0  0  0  0  0  0  0  0  0  0  0  0
    2.1804    1.5973    2.2423 C   0  0  0  0  0  0  0  0  0  0  0  0
    0.9647    1.6424    1.5595 C   0  0  0  0  0  0  0  0  0  0  0  0
   -2.4953   -2.0782    4.0033 H   0  0  0  0  0  0  0  0  0  0  0  0
   -1.7508   -0.5818    4.6723 H   0  0  0  0  0  0  0  0  0  0  0  0
   -2.9190   -0.4623    3.3295 H   0  0  0  0  0  0  0  0  0  0  0  0
   -0.7183   -0.2226    2.5599 H   0  0  0  0  0  0  0  0  0  0  0  0
    0.4911   -1.2948    4.2838 H   0  0  0  0  0  0  0  0  0  0  0  0
    1.0081   -1.8393    2.6619 H   0  0  0  0  0  0  0  0  0  0  0  0
   -0.0710   -2.8855    3.6500 H   0  0  0  0  0  0  0  0  0  0  0  0
   -0.4772   -2.0334    0.9287 H   0  0  0  0  0  0  0  0  0  0  0  0
   -1.9551   -2.7250    1.6496 H   0  0  0  0  0  0  0  0  0  0  0  0
   -3.2266   -0.7070    1.0638 H   0  0  0  0  0  0  0  0  0  0  0  0
   -2.3368   -1.1031   -0.3975 H   0  0  0  0  0  0  0  0  0  0  0  0
   -0.6347    0.0192   -1.0204 H   0  0  0  0  0  0  0  0  0  0  0  0
    0.7085    1.8634   -2.3891 H   0  0  0  0  0  0  0  0  0  0  0  0
    0.2855    3.9868   -3.5591 H   0  0  0  0  0  0  0  0  0  0  0  0
   -1.5458    5.4821   -2.8180 H   0  0  0  0  0  0  0  0  0  0  0  0
   -2.9634    4.8431   -0.8896 H   0  0  0  0  0  0  0  0  0  0  0  0
   -2.5681    2.7287    0.3007 H   0  0  0  0  0  0  0  0  0  0  0  0
    1.5768   -0.7899   -0.7557 H   0  0  0  0  0  0  0  0  0  0  0  0
    3.7202   -0.8518    0.4601 H   0  0  0  0  0  0  0  0  0  0  0  0
    4.1218    0.6737    2.3702 H   0  0  0  0  0  0  0  0  0  0  0  0
    2.3742    2.2916    3.0575 H   0  0  0  0  0  0  0  0  0  0  0  0
    0.2180    2.3795    1.8537 H   0  0  0  0  0  0  0  0  0  0  0  0
  1  2  1  0
  2  3  1  0
  2  4  1  0
  4  5  1  0
  5  6  1  0
  6  7  1  0
  7  8  1  0
  8  9  2  0
  9 10  1  0
 10 11  2  0
 11 12  1  0
 12 13  2  0
  7 14  1  0
 14 15  2  0
 15 16  1  0
 16 17  2  0
 17 18  1  0
 18 19  2  0
 13  8  1  0
 19 14  1  0
  1 20  1  0
  1 21  1  0
  1 22  1  0
  2 23  1  0
  3 24  1  0
  3 25  1  0
  3 26  1  0
  4 27  1  0
  4 28  1  0
  5 29  1  0
  5 30  1  0
  7 31  1  0
  9 32  1  0
 10 33  1  0
 11 34  1  0
 12 35  1  0
 13 36  1  0
 15 37  1  0
 16 38  1  0
 17 39  1  0
 18 40  1  0
 19 41  1  0
M  CHG  1   2   1
M  END
>  <conformer_method>  (1) 
RDKit ETKDGv3 useRandomCoords=True then MMFF94 (UFF only if MMFF unavailable)

>  <random_seed>  (1) 
1902

>  <source>  (1) 
preselected comparison graph

$$$$
