native_0EU
     RDKit          3D

 72 76  0  0  1  0  0  0  0  0999 V2000
    0.9940    3.2552   -3.1104 C   0  0  0  0  0  0  0  0  0  0  0  0
    2.0342    2.7098   -3.9094 C   0  0  0  0  0  0  0  0  0  0  0  0
    2.0061    2.8259   -5.3024 C   0  0  0  0  0  0  0  0  0  0  0  0
    0.9591    3.4861   -5.9266 C   0  0  0  0  0  0  0  0  0  0  0  0
   -0.0696    4.0519   -5.1721 C   0  0  0  0  0  0  0  0  0  0  0  0
   -0.0319    3.9382   -3.7681 C   0  0  0  0  0  0  0  0  0  0  0  0
   -1.1649    4.5854   -2.6542 S   0  0  0  0  0  0  0  0  0  0  0  0
   -0.2930    4.0399   -1.3129 C   0  0  0  0  0  0  0  0  0  0  0  0
   -0.6742    4.3470   -0.0145 N   0  0  0  0  0  0  0  0  0  0  0  0
   -1.7039    5.1715    0.3874 C   0  0  0  0  0  0  0  0  0  0  0  0
   -2.4853    5.7932   -0.3190 O   0  0  0  0  0  0  0  0  0  0  0  0
   -1.7636    5.2267    1.7702 N   0  0  0  0  0  0  0  0  0  0  0  0
    0.7854    3.2490   -1.6749 C   0  0  0  0  0  0  0  0  0  0  0  0
    1.6101    2.5766   -0.6712 C   0  0  0  0  0  0  0  0  0  0  0  0
    1.8966    1.2211   -0.8583 N   0  0  0  0  0  0  0  0  0  0  0  0
    1.9762    3.1838    0.3351 O   0  0  0  0  0  0  0  0  0  0  0  0
    1.0679    0.3257   -1.6662 C   0  0  0  0  0  0  0  0  0  0  0  0
    0.9315   -1.0730   -1.0481 C   0  0  0  0  0  0  0  0  0  0  0  0
    2.7935    0.5630    0.0740 C   0  0  0  0  0  0  0  0  0  0  0  0
    2.0109   -0.2650    1.0895 C   0  0  0  0  0  0  0  0  0  0  0  0
    0.7714   -0.9826    0.4853 C   0  0  0  0  0  0  0  0  0  0  0  0
    0.5539   -2.2919    1.1624 N   0  0  0  0  0  0  0  0  0  0  0  0
    0.2083   -2.1125    2.5837 C   0  0  0  0  0  0  0  0  0  0  0  0
    0.3019   -3.4380    3.3393 C   0  0  0  0  0  0  0  0  0  0  0  0
   -0.0048   -4.6651    2.4818 C   0  0  0  0  0  0  0  0  0  0  0  0
   -0.4985   -3.1086    0.5124 C   0  0  0  0  0  0  0  0  0  0  0  0
   -0.9381   -4.3661    1.3038 C   0  0  2  0  0  0  0  0  0  0  0  0
   -2.3761   -4.1989    1.7575 C   0  0  0  0  0  0  0  0  0  0  0  0
   -2.7581   -3.5042    2.6863 O   0  0  0  0  0  0  0  0  0  0  0  0
   -3.2277   -4.9153    0.9665 O   0  0  0  0  0  0  0  0  0  0  0  0
   -1.0683   -5.6098    0.4147 C   0  0  0  0  0  0  0  0  0  0  0  0
   -2.5112   -5.5999   -0.0659 C   0  0  0  0  0  0  0  0  0  0  0  0
   -2.7094   -4.8560   -1.3876 C   0  0  0  0  0  0  0  0  0  0  0  0
   -3.0717   -7.0172   -0.1833 C   0  0  0  0  0  0  0  0  0  0  0  0
   -2.8025    5.9790    2.4435 C   0  0  0  0  0  0  0  0  0  0  0  0
   -4.1083    5.2066    2.5130 C   0  0  0  0  0  0  0  0  0  0  0  0
    2.8723    2.2001   -3.4390 H   0  0  0  0  0  0  0  0  0  0  0  0
    2.8121    2.4016   -5.8963 H   0  0  0  0  0  0  0  0  0  0  0  0
    0.9422    3.5768   -7.0102 H   0  0  0  0  0  0  0  0  0  0  0  0
   -0.8812    4.5849   -5.6604 H   0  0  0  0  0  0  0  0  0  0  0  0
   -0.0064    4.0836    0.7014 H   0  0  0  0  0  0  0  0  0  0  0  0
   -1.3496    4.4601    2.2782 H   0  0  0  0  0  0  0  0  0  0  0  0
    0.0697    0.7585   -1.7895 H   0  0  0  0  0  0  0  0  0  0  0  0
    1.5262    0.2329   -2.6553 H   0  0  0  0  0  0  0  0  0  0  0  0
    1.8144   -1.6783   -1.2919 H   0  0  0  0  0  0  0  0  0  0  0  0
    0.0740   -1.5575   -1.5268 H   0  0  0  0  0  0  0  0  0  0  0  0
    3.4327    1.2878    0.5898 H   0  0  0  0  0  0  0  0  0  0  0  0
    3.4609   -0.0808   -0.5119 H   0  0  0  0  0  0  0  0  0  0  0  0
    1.6709    0.3916    1.9009 H   0  0  0  0  0  0  0  0  0  0  0  0
    2.7076   -0.9830    1.5411 H   0  0  0  0  0  0  0  0  0  0  0  0
   -0.1093   -0.3506    0.6738 H   0  0  0  0  0  0  0  0  0  0  0  0
    0.8847   -1.4140    3.0875 H   0  0  0  0  0  0  0  0  0  0  0  0
   -0.7972   -1.6836    2.6826 H   0  0  0  0  0  0  0  0  0  0  0  0
   -0.3831   -3.4037    4.1951 H   0  0  0  0  0  0  0  0  0  0  0  0
    1.3089   -3.5552    3.7595 H   0  0  0  0  0  0  0  0  0  0  0  0
    0.9452   -5.0537    2.0892 H   0  0  0  0  0  0  0  0  0  0  0  0
   -0.4149   -5.4536    3.1258 H   0  0  0  0  0  0  0  0  0  0  0  0
   -0.0971   -3.4385   -0.4520 H   0  0  0  0  0  0  0  0  0  0  0  0
   -1.3698   -2.4739    0.3018 H   0  0  0  0  0  0  0  0  0  0  0  0
   -0.3428   -5.6464   -0.4051 H   0  0  0  0  0  0  0  0  0  0  0  0
   -0.8899   -6.5101    1.0190 H   0  0  0  0  0  0  0  0  0  0  0  0
   -2.1294   -5.3144   -2.1951 H   0  0  0  0  0  0  0  0  0  0  0  0
   -2.4290   -3.8020   -1.3137 H   0  0  0  0  0  0  0  0  0  0  0  0
   -3.7668   -4.8619   -1.6772 H   0  0  0  0  0  0  0  0  0  0  0  0
   -4.1319   -6.9955   -0.4606 H   0  0  0  0  0  0  0  0  0  0  0  0
   -2.5278   -7.6035   -0.9309 H   0  0  0  0  0  0  0  0  0  0  0  0
   -3.0196   -7.5417    0.7777 H   0  0  0  0  0  0  0  0  0  0  0  0
   -2.9546    6.9305    1.9230 H   0  0  0  0  0  0  0  0  0  0  0  0
   -2.4400    6.1945    3.4535 H   0  0  0  0  0  0  0  0  0  0  0  0
   -3.9700    4.2527    3.0328 H   0  0  0  0  0  0  0  0  0  0  0  0
   -4.8647    5.7851    3.0522 H   0  0  0  0  0  0  0  0  0  0  0  0
   -4.4948    4.9871    1.5126 H   0  0  0  0  0  0  0  0  0  0  0  0
  1  2  2  0
  1  6  1  0
  1 13  1  0
  2  3  1  0
  3  4  2  0
  4  5  1  0
  5  6  2  0
  6  7  1  0
  7  8  1  0
  8  9  1  0
  8 13  2  0
  9 10  1  0
 10 11  2  0
 10 12  1  0
 12 35  1  0
 13 14  1  0
 14 15  1  0
 14 16  2  0
 15 17  1  0
 15 19  1  0
 17 18  1  0
 18 21  1  0
 19 20  1  0
 20 21  1  0
 21 22  1  0
 22 23  1  0
 22 26  1  0
 23 24  1  0
 24 25  1  0
 27 25  1  1
 26 27  1  0
 27 28  1  0
 27 31  1  0
 28 29  2  0
 28 30  1  0
 30 32  1  0
 31 32  1  0
 32 33  1  0
 32 34  1  0
 35 36  1  0
  2 37  1  0
  3 38  1  0
  4 39  1  0
  5 40  1  0
  9 41  1  0
 12 42  1  0
 17 43  1  0
 17 44  1  0
 18 45  1  0
 18 46  1  0
 19 47  1  0
 19 48  1  0
 20 49  1  0
 20 50  1  0
 21 51  1  0
 23 52  1  0
 23 53  1  0
 24 54  1  0
 24 55  1  0
 25 56  1  0
 25 57  1  0
 26 58  1  0
 26 59  1  0
 31 60  1  0
 31 61  1  0
 33 62  1  0
 33 63  1  0
 33 64  1  0
 34 65  1  0
 34 66  1  0
 34 67  1  0
 35 68  1  0
 35 69  1  0
 36 70  1  0
 36 71  1  0
 36 72  1  0
M  END
>  <conformer_method>  (1) 
RDKit ETKDGv3 useRandomCoords=True then MMFF94 (UFF only if MMFF unavailable)

>  <random_seed>  (1) 
1701

>  <source>  (1) 
RCSB CCD 0EU graph; source coordinates discarded

$$$$
