prl_neutral
     RDKit          3D

 42 43  0  0  0  0  0  0  0  0999 V2000
    3.0673   -1.6923    0.2101 C   0  0  0  0  0  0  0  0  0  0  0  0
    1.6056   -1.6938    0.3683 N   0  0  0  0  0  0  0  0  0  0  0  0
    0.9875   -2.3231   -0.8190 C   0  0  0  0  0  0  0  0  0  0  0  0
   -0.4772   -2.7731   -0.6250 C   0  0  0  0  0  0  0  0  0  0  0  0
   -1.5378   -1.7568   -0.9829 C   0  0  0  0  0  0  0  0  0  0  0  0
   -2.4818   -1.3558   -0.0271 C   0  0  0  0  0  0  0  0  0  0  0  0
   -3.4726   -0.4282   -0.3502 C   0  0  0  0  0  0  0  0  0  0  0  0
   -3.5389    0.1026   -1.6380 C   0  0  0  0  0  0  0  0  0  0  0  0
   -2.6160   -0.2955   -2.6130 C   0  0  0  0  0  0  0  0  0  0  0  0
   -1.6217   -1.2288   -2.2816 C   0  0  0  0  0  0  0  0  0  0  0  0
   -2.7359    0.2950   -3.9745 C   0  0  0  0  0  0  0  0  0  0  0  0
   -3.6020    1.0960   -4.2893 O   0  0  0  0  0  0  0  0  0  0  0  0
   -1.7596   -0.1767   -4.7905 O   0  0  0  0  0  0  0  0  0  0  0  0
   -1.8117    0.3476   -6.1181 C   0  0  0  0  0  0  0  0  0  0  0  0
    1.1130   -0.3164    0.5734 C   0  0  0  0  0  0  0  0  0  0  0  0
    1.5698    0.3068    1.8785 C   0  0  0  0  0  0  0  0  0  0  0  0
    1.3024   -0.3262    3.1022 C   0  0  0  0  0  0  0  0  0  0  0  0
    1.7046    0.2552    4.3053 C   0  0  0  0  0  0  0  0  0  0  0  0
    2.3730    1.4779    4.2991 C   0  0  0  0  0  0  0  0  0  0  0  0
    2.6391    2.1201    3.0908 C   0  0  0  0  0  0  0  0  0  0  0  0
    2.2380    1.5395    1.8860 C   0  0  0  0  0  0  0  0  0  0  0  0
    3.3872   -1.0959   -0.6522 H   0  0  0  0  0  0  0  0  0  0  0  0
    3.5696   -1.3079    1.1039 H   0  0  0  0  0  0  0  0  0  0  0  0
    3.4401   -2.7145    0.0770 H   0  0  0  0  0  0  0  0  0  0  0  0
    1.5428   -3.2486   -1.0252 H   0  0  0  0  0  0  0  0  0  0  0  0
    1.1092   -1.6911   -1.7073 H   0  0  0  0  0  0  0  0  0  0  0  0
   -0.6565   -3.6502   -1.2622 H   0  0  0  0  0  0  0  0  0  0  0  0
   -0.6180   -3.1308    0.4033 H   0  0  0  0  0  0  0  0  0  0  0  0
   -2.4447   -1.7584    0.9838 H   0  0  0  0  0  0  0  0  0  0  0  0
   -4.1938   -0.1191    0.4025 H   0  0  0  0  0  0  0  0  0  0  0  0
   -4.3162    0.8253   -1.8794 H   0  0  0  0  0  0  0  0  0  0  0  0
   -0.9101   -1.5555   -3.0364 H   0  0  0  0  0  0  0  0  0  0  0  0
   -0.9902   -0.0941   -6.6889 H   0  0  0  0  0  0  0  0  0  0  0  0
   -1.6804    1.4342   -6.1067 H   0  0  0  0  0  0  0  0  0  0  0  0
   -2.7551    0.0750   -6.6015 H   0  0  0  0  0  0  0  0  0  0  0  0
    0.0215   -0.2994    0.6189 H   0  0  0  0  0  0  0  0  0  0  0  0
    1.3982    0.3213   -0.2739 H   0  0  0  0  0  0  0  0  0  0  0  0
    0.7851   -1.2833    3.1138 H   0  0  0  0  0  0  0  0  0  0  0  0
    1.4970   -0.2476    5.2459 H   0  0  0  0  0  0  0  0  0  0  0  0
    2.6861    1.9305    5.2360 H   0  0  0  0  0  0  0  0  0  0  0  0
    3.1585    3.0747    3.0868 H   0  0  0  0  0  0  0  0  0  0  0  0
    2.4511    2.0554    0.9529 H   0  0  0  0  0  0  0  0  0  0  0  0
  1  2  1  0
  2  3  1  0
  3  4  1  0
  4  5  1  0
  5  6  2  0
  6  7  1  0
  7  8  2  0
  8  9  1  0
  9 10  2  0
  9 11  1  0
 11 12  2  0
 11 13  1  0
 13 14  1  0
  2 15  1  0
 15 16  1  0
 16 17  2  0
 17 18  1  0
 18 19  2  0
 19 20  1  0
 20 21  2  0
 10  5  1  0
 21 16  1  0
  1 22  1  0
  1 23  1  0
  1 24  1  0
  3 25  1  0
  3 26  1  0
  4 27  1  0
  4 28  1  0
  6 29  1  0
  7 30  1  0
  8 31  1  0
 10 32  1  0
 14 33  1  0
 14 34  1  0
 14 35  1  0
 15 36  1  0
 15 37  1  0
 17 38  1  0
 18 39  1  0
 19 40  1  0
 20 41  1  0
 21 42  1  0
M  END
>  <conformer_method>  (1) 
RDKit ETKDGv3 useRandomCoords=True then MMFF94 (UFF only if MMFF unavailable)

>  <random_seed>  (1) 
1801

>  <source>  (1) 
brief-specified PRL graph

$$$$
