prl_protonated
     RDKit          3D

 43 44  0  0  0  0  0  0  0  0999 V2000
   -0.9434    0.1562    2.4027 C   0  0  0  0  0  0  0  0  0  0  0  0
   -0.4772    0.3440    0.9875 N   0  0  0  0  0  0  0  0  0  0  0  0
   -1.4731    1.0988    0.1226 C   0  0  0  0  0  0  0  0  0  0  0  0
   -1.5483    2.5907    0.4846 C   0  0  0  0  0  0  0  0  0  0  0  0
   -0.2148    3.2959    0.3972 C   0  0  0  0  0  0  0  0  0  0  0  0
    0.4068    3.7834    1.5551 C   0  0  0  0  0  0  0  0  0  0  0  0
    1.6513    4.4094    1.4801 C   0  0  0  0  0  0  0  0  0  0  0  0
    2.2866    4.5607    0.2475 C   0  0  0  0  0  0  0  0  0  0  0  0
    1.6760    4.0968   -0.9233 C   0  0  0  0  0  0  0  0  0  0  0  0
    0.4233    3.4680   -0.8430 C   0  0  0  0  0  0  0  0  0  0  0  0
    2.3939    4.2905   -2.2137 C   0  0  0  0  0  0  0  0  0  0  0  0
    3.4923    4.8133   -2.2984 O   0  0  0  0  0  0  0  0  0  0  0  0
    1.6652    3.7906   -3.2430 O   0  0  0  0  0  0  0  0  0  0  0  0
    2.2828    3.9644   -4.5216 C   0  0  0  0  0  0  0  0  0  0  0  0
   -0.0003   -0.9496    0.3494 C   0  0  0  0  0  0  0  0  0  0  0  0
   -1.0573   -2.0016    0.1453 C   0  0  0  0  0  0  0  0  0  0  0  0
   -1.7953   -2.0538   -1.0480 C   0  0  0  0  0  0  0  0  0  0  0  0
   -2.7897   -3.0169   -1.2259 C   0  0  0  0  0  0  0  0  0  0  0  0
   -3.0553   -3.9407   -0.2184 C   0  0  0  0  0  0  0  0  0  0  0  0
   -2.3230   -3.9090    0.9655 C   0  0  0  0  0  0  0  0  0  0  0  0
   -1.3277   -2.9475    1.1472 C   0  0  0  0  0  0  0  0  0  0  0  0
   -0.1919   -0.4306    2.9378 H   0  0  0  0  0  0  0  0  0  0  0  0
   -1.0292    1.1397    2.8698 H   0  0  0  0  0  0  0  0  0  0  0  0
   -1.9116   -0.3502    2.3976 H   0  0  0  0  0  0  0  0  0  0  0  0
    0.3694    0.9268    1.0364 H   0  0  0  0  0  0  0  0  0  0  0  0
   -1.1436    0.9857   -0.9161 H   0  0  0  0  0  0  0  0  0  0  0  0
   -2.4509    0.6195    0.2391 H   0  0  0  0  0  0  0  0  0  0  0  0
   -2.2483    3.0893   -0.1979 H   0  0  0  0  0  0  0  0  0  0  0  0
   -1.9769    2.7128    1.4863 H   0  0  0  0  0  0  0  0  0  0  0  0
   -0.0752    3.7031    2.5283 H   0  0  0  0  0  0  0  0  0  0  0  0
    2.1251    4.7981    2.3802 H   0  0  0  0  0  0  0  0  0  0  0  0
    3.2546    5.0596    0.2018 H   0  0  0  0  0  0  0  0  0  0  0  0
   -0.0647    3.1279   -1.7548 H   0  0  0  0  0  0  0  0  0  0  0  0
    2.4328    5.0276   -4.7342 H   0  0  0  0  0  0  0  0  0  0  0  0
    3.2318    3.4209   -4.5644 H   0  0  0  0  0  0  0  0  0  0  0  0
    1.6118    3.5509   -5.2796 H   0  0  0  0  0  0  0  0  0  0  0  0
    0.8088   -1.3327    0.9836 H   0  0  0  0  0  0  0  0  0  0  0  0
    0.4630   -0.6754   -0.6064 H   0  0  0  0  0  0  0  0  0  0  0  0
   -1.5999   -1.3594   -1.8629 H   0  0  0  0  0  0  0  0  0  0  0  0
   -3.3542   -3.0578   -2.1557 H   0  0  0  0  0  0  0  0  0  0  0  0
   -3.8257   -4.6960   -0.3617 H   0  0  0  0  0  0  0  0  0  0  0  0
   -2.5242   -4.6440    1.7427 H   0  0  0  0  0  0  0  0  0  0  0  0
   -0.7619   -2.9612    2.0769 H   0  0  0  0  0  0  0  0  0  0  0  0
  1  2  1  0
  2  3  1  0
  3  4  1  0
  4  5  1  0
  5  6  2  0
  6  7  1  0
  7  8  2  0
  8  9  1  0
  9 10  2  0
  9 11  1  0
 11 12  2  0
 11 13  1  0
 13 14  1  0
  2 15  1  0
 15 16  1  0
 16 17  2  0
 17 18  1  0
 18 19  2  0
 19 20  1  0
 20 21  2  0
 10  5  1  0
 21 16  1  0
  1 22  1  0
  1 23  1  0
  1 24  1  0
  2 25  1  0
  3 26  1  0
  3 27  1  0
  4 28  1  0
  4 29  1  0
  6 30  1  0
  7 31  1  0
  8 32  1  0
 10 33  1  0
 14 34  1  0
 14 35  1  0
 14 36  1  0
 15 37  1  0
 15 38  1  0
 17 39  1  0
 18 40  1  0
 19 41  1  0
 20 42  1  0
 21 43  1  0
M  CHG  1   2   1
M  END
>  <conformer_method>  (1) 
RDKit ETKDGv3 useRandomCoords=True then MMFF94 (UFF only if MMFF unavailable)

>  <random_seed>  (1) 
1802

>  <source>  (1) 
brief-specified PRL graph

$$$$
