procaine_protonated
     RDKit          3D

 38 38  0  0  0  0  0  0  0  0999 V2000
   -0.2709    4.7956   -0.7181 C   0  0  0  0  0  0  0  0  0  0  0  0
   -0.6643    3.3501   -0.9366 C   0  0  0  0  0  0  0  0  0  0  0  0
   -0.9797    2.6020    0.3393 N   0  0  0  0  0  0  0  0  0  0  0  0
   -2.2536    3.0259    1.0434 C   0  0  0  0  0  0  0  0  0  0  0  0
   -2.0448    4.1005    2.0959 C   0  0  0  0  0  0  0  0  0  0  0  0
    0.1952    2.3288    1.2746 C   0  0  0  0  0  0  0  0  0  0  0  0
    1.2186    1.3857    0.6260 C   0  0  0  0  0  0  0  0  0  0  0  0
    0.5821    0.2651   -0.0219 O   0  0  0  0  0  0  0  0  0  0  0  0
    0.1076   -0.6918    0.8203 C   0  0  0  0  0  0  0  0  0  0  0  0
    0.0360   -0.5616    2.0303 O   0  0  0  0  0  0  0  0  0  0  0  0
   -0.3978   -1.8672    0.0671 C   0  0  0  0  0  0  0  0  0  0  0  0
   -1.1538   -2.8199    0.7583 C   0  0  0  0  0  0  0  0  0  0  0  0
   -1.6733   -3.9283    0.0824 C   0  0  0  0  0  0  0  0  0  0  0  0
   -1.4083   -4.1272   -1.2744 C   0  0  0  0  0  0  0  0  0  0  0  0
   -2.0391   -5.1605   -1.9698 N   0  0  0  0  0  0  0  0  0  0  0  0
   -0.6892   -3.1501   -1.9675 C   0  0  0  0  0  0  0  0  0  0  0  0
   -0.1662   -2.0356   -1.3025 C   0  0  0  0  0  0  0  0  0  0  0  0
    0.0716    5.2282   -1.6644 H   0  0  0  0  0  0  0  0  0  0  0  0
   -1.1225    5.3962   -0.3886 H   0  0  0  0  0  0  0  0  0  0  0  0
    0.5420    4.9030    0.0044 H   0  0  0  0  0  0  0  0  0  0  0  0
    0.1379    2.8044   -1.4421 H   0  0  0  0  0  0  0  0  0  0  0  0
   -1.5537    3.2825   -1.5731 H   0  0  0  0  0  0  0  0  0  0  0  0
   -1.2112    1.6591   -0.0068 H   0  0  0  0  0  0  0  0  0  0  0  0
   -2.6581    2.1215    1.5118 H   0  0  0  0  0  0  0  0  0  0  0  0
   -2.9615    3.3524    0.2746 H   0  0  0  0  0  0  0  0  0  0  0  0
   -3.0147    4.4067    2.5022 H   0  0  0  0  0  0  0  0  0  0  0  0
   -1.4488    3.7329    2.9367 H   0  0  0  0  0  0  0  0  0  0  0  0
   -1.5580    4.9933    1.7012 H   0  0  0  0  0  0  0  0  0  0  0  0
   -0.2320    1.8624    2.1669 H   0  0  0  0  0  0  0  0  0  0  0  0
    0.6469    3.2828    1.5598 H   0  0  0  0  0  0  0  0  0  0  0  0
    1.7875    1.9163   -0.1444 H   0  0  0  0  0  0  0  0  0  0  0  0
    1.9485    1.0325    1.3644 H   0  0  0  0  0  0  0  0  0  0  0  0
   -1.3566   -2.7063    1.8217 H   0  0  0  0  0  0  0  0  0  0  0  0
   -2.2872   -4.6415    0.6284 H   0  0  0  0  0  0  0  0  0  0  0  0
   -2.2775   -5.9679   -1.4002 H   0  0  0  0  0  0  0  0  0  0  0  0
   -1.5791   -5.4331   -2.8337 H   0  0  0  0  0  0  0  0  0  0  0  0
   -0.5273   -3.2542   -3.0383 H   0  0  0  0  0  0  0  0  0  0  0  0
    0.4138   -1.3162   -1.8738 H   0  0  0  0  0  0  0  0  0  0  0  0
  1  2  1  0
  2  3  1  0
  3  4  1  0
  4  5  1  0
  3  6  1  0
  6  7  1  0
  7  8  1  0
  8  9  1  0
  9 10  2  0
  9 11  1  0
 11 12  1  0
 12 13  2  0
 13 14  1  0
 14 15  1  0
 14 16  2  0
 16 17  1  0
 17 11  2  0
  1 18  1  0
  1 19  1  0
  1 20  1  0
  2 21  1  0
  2 22  1  0
  3 23  1  0
  4 24  1  0
  4 25  1  0
  5 26  1  0
  5 27  1  0
  5 28  1  0
  6 29  1  0
  6 30  1  0
  7 31  1  0
  7 32  1  0
 12 33  1  0
 13 34  1  0
 15 35  1  0
 15 36  1  0
 16 37  1  0
 17 38  1  0
M  CHG  1   3   1
M  END
>  <conformer_method>  (1) 
RDKit ETKDGv3 useRandomCoords=True then MMFF94 (UFF only if MMFF unavailable)

>  <random_seed>  (1) 
1903

>  <source>  (1) 
preselected comparison graph

$$$$
