paroxetine_protonated
     RDKit          3D

 45 48  0  0  0  0  0  0  0  0999 V2000
   -0.3593   -5.3239    0.3283 F   0  0  0  0  0  0  0  0  0  0  0  0
   -0.8652   -4.0933    0.4760 C   0  0  0  0  0  0  0  0  0  0  0  0
   -0.9864   -3.2657   -0.6315 C   0  0  0  0  0  0  0  0  0  0  0  0
   -1.5093   -1.9799   -0.4793 C   0  0  0  0  0  0  0  0  0  0  0  0
   -1.9126   -1.5163    0.7858 C   0  0  0  0  0  0  0  0  0  0  0  0
   -1.7836   -2.3762    1.8906 C   0  0  0  0  0  0  0  0  0  0  0  0
   -1.2595   -3.6609    1.7345 C   0  0  0  0  0  0  0  0  0  0  0  0
   -2.4875   -0.1234    0.9828 C   0  0  2  0  0  0  0  0  0  0  0  0
   -3.8375   -0.0321    0.2390 C   0  0  0  0  0  0  0  0  0  0  0  0
   -4.4836    1.3296    0.4000 C   0  0  0  0  0  0  0  0  0  0  0  0
   -3.5242    2.3726   -0.0603 N   0  0  0  0  0  0  0  0  0  0  0  0
   -2.2435    2.3848    0.7032 C   0  0  0  0  0  0  0  0  0  0  0  0
   -1.5322    1.0362    0.5704 C   0  0  1  0  0  0  0  0  0  0  0  0
   -0.2479    1.0986    1.4289 C   0  0  0  0  0  0  0  0  0  0  0  0
    0.6243    0.0015    1.1949 O   0  0  0  0  0  0  0  0  0  0  0  0
    1.4563    0.0272    0.1101 C   0  0  0  0  0  0  0  0  0  0  0  0
    2.1689   -1.1722   -0.0955 C   0  0  0  0  0  0  0  0  0  0  0  0
    3.0485   -1.3186   -1.1724 C   0  0  0  0  0  0  0  0  0  0  0  0
    3.1960   -0.2463   -2.0209 C   0  0  0  0  0  0  0  0  0  0  0  0
    3.9978   -0.1991   -3.1161 O   0  0  0  0  0  0  0  0  0  0  0  0
    3.7671    1.1506   -3.5682 C   0  0  0  0  0  0  0  0  0  0  0  0
    2.7913    1.8608   -2.7711 O   0  0  0  0  0  0  0  0  0  0  0  0
    2.5091    0.9270   -1.8219 C   0  0  0  0  0  0  0  0  0  0  0  0
    1.6349    1.0993   -0.7664 C   0  0  0  0  0  0  0  0  0  0  0  0
   -0.6646   -3.6254   -1.6042 H   0  0  0  0  0  0  0  0  0  0  0  0
   -1.5805   -1.3494   -1.3615 H   0  0  0  0  0  0  0  0  0  0  0  0
   -2.0804   -2.0574    2.8876 H   0  0  0  0  0  0  0  0  0  0  0  0
   -1.1525   -4.3263    2.5861 H   0  0  0  0  0  0  0  0  0  0  0  0
   -2.7070    0.0064    2.0528 H   0  0  0  0  0  0  0  0  0  0  0  0
   -3.7011   -0.2334   -0.8317 H   0  0  0  0  0  0  0  0  0  0  0  0
   -4.5249   -0.8015    0.6129 H   0  0  0  0  0  0  0  0  0  0  0  0
   -4.7370    1.5501    1.4420 H   0  0  0  0  0  0  0  0  0  0  0  0
   -5.3811    1.4249   -0.2182 H   0  0  0  0  0  0  0  0  0  0  0  0
   -3.3344    2.2493   -1.0662 H   0  0  0  0  0  0  0  0  0  0  0  0
   -3.9744    3.2962    0.0180 H   0  0  0  0  0  0  0  0  0  0  0  0
   -2.4907    2.6256    1.7433 H   0  0  0  0  0  0  0  0  0  0  0  0
   -1.6421    3.1985    0.2850 H   0  0  0  0  0  0  0  0  0  0  0  0
   -1.2535    0.8973   -0.4818 H   0  0  0  0  0  0  0  0  0  0  0  0
   -0.5271    1.0514    2.4891 H   0  0  0  0  0  0  0  0  0  0  0  0
    0.2822    2.0520    1.3174 H   0  0  0  0  0  0  0  0  0  0  0  0
    2.0288   -2.0037    0.5936 H   0  0  0  0  0  0  0  0  0  0  0  0
    3.5955   -2.2413   -1.3314 H   0  0  0  0  0  0  0  0  0  0  0  0
    4.7145    1.7011   -3.5356 H   0  0  0  0  0  0  0  0  0  0  0  0
    3.4130    1.1178   -4.6048 H   0  0  0  0  0  0  0  0  0  0  0  0
    1.1380    2.0518   -0.6590 H   0  0  0  0  0  0  0  0  0  0  0  0
  1  2  1  0
  2  3  1  0
  3  4  2  0
  4  5  1  0
  5  6  2  0
  6  7  1  0
  5  8  1  0
  8  9  1  0
  9 10  1  0
 10 11  1  0
 11 12  1  0
 12 13  1  0
 13 14  1  0
 14 15  1  0
 15 16  1  0
 16 17  1  0
 17 18  2  0
 18 19  1  0
 19 20  1  0
 20 21  1  0
 21 22  1  0
 22 23  1  0
 23 24  1  0
  7  2  2  0
 13  8  1  0
 24 16  2  0
 23 19  2  0
  3 25  1  0
  4 26  1  0
  6 27  1  0
  7 28  1  0
  8 29  1  1
  9 30  1  0
  9 31  1  0
 10 32  1  0
 10 33  1  0
 11 34  1  0
 11 35  1  0
 12 36  1  0
 12 37  1  0
 13 38  1  6
 14 39  1  0
 14 40  1  0
 17 41  1  0
 18 42  1  0
 21 43  1  0
 21 44  1  0
 24 45  1  0
M  CHG  1  11   1
M  END
>  <source>  (1) 
RCSB CCD 8PR graph and canonical stereochemistry; all source coordinates discarded

>  <conformer_method>  (1) 
RDKit ETKDGv3 useRandomCoords=True, one thread, then MMFF94

>  <conformer_seed>  (1) 
2202

$$$$
