paroxetine_neutral
     RDKit          3D

 44 47  0  0  0  0  0  0  0  0999 V2000
    1.7286   -4.9250    2.4448 F   0  0  0  0  0  0  0  0  0  0  0  0
    1.3235   -4.0312    1.5330 C   0  0  0  0  0  0  0  0  0  0  0  0
    2.1250   -3.7677    0.4300 C   0  0  0  0  0  0  0  0  0  0  0  0
    1.7062   -2.8350   -0.5209 C   0  0  0  0  0  0  0  0  0  0  0  0
    0.4807   -2.1646   -0.3718 C   0  0  0  0  0  0  0  0  0  0  0  0
   -0.3111   -2.4473    0.7552 C   0  0  0  0  0  0  0  0  0  0  0  0
    0.1100   -3.3792    1.7050 C   0  0  0  0  0  0  0  0  0  0  0  0
    0.0001   -1.1311   -1.3846 C   0  0  2  0  0  0  0  0  0  0  0  0
   -0.1258   -1.7226   -2.8060 C   0  0  0  0  0  0  0  0  0  0  0  0
    0.9407   -1.1879   -3.7563 C   0  0  0  0  0  0  0  0  0  0  0  0
    0.9025    0.2672   -3.8749 N   0  0  0  0  0  0  0  0  0  0  0  0
    0.6065    0.9723   -2.6256 C   0  0  0  0  0  0  0  0  0  0  0  0
    0.8847    0.1439   -1.3627 C   0  0  1  0  0  0  0  0  0  0  0  0
    0.6619    0.9883   -0.0939 C   0  0  0  0  0  0  0  0  0  0  0  0
   -0.7011    1.4068   -0.0216 O   0  0  0  0  0  0  0  0  0  0  0  0
   -1.0772    2.1256    1.0803 C   0  0  0  0  0  0  0  0  0  0  0  0
   -2.4420    2.4784    1.1035 C   0  0  0  0  0  0  0  0  0  0  0  0
   -2.9819    3.2132    2.1635 C   0  0  0  0  0  0  0  0  0  0  0  0
   -2.1304    3.5786    3.1808 C   0  0  0  0  0  0  0  0  0  0  0  0
   -2.4705    4.2904    4.2876 O   0  0  0  0  0  0  0  0  0  0  0  0
   -1.1998    4.3605    4.9666 C   0  0  0  0  0  0  0  0  0  0  0  0
   -0.1326    3.6958    4.2581 O   0  0  0  0  0  0  0  0  0  0  0  0
   -0.7983    3.2386    3.1625 C   0  0  0  0  0  0  0  0  0  0  0  0
   -0.2390    2.5138    2.1285 C   0  0  0  0  0  0  0  0  0  0  0  0
    3.0701   -4.2889    0.3173 H   0  0  0  0  0  0  0  0  0  0  0  0
    2.3469   -2.6385   -1.3763 H   0  0  0  0  0  0  0  0  0  0  0  0
   -1.2618   -1.9378    0.9029 H   0  0  0  0  0  0  0  0  0  0  0  0
   -0.5002   -3.5980    2.5753 H   0  0  0  0  0  0  0  0  0  0  0  0
   -1.0233   -0.8503   -1.0985 H   0  0  0  0  0  0  0  0  0  0  0  0
   -1.1110   -1.4499   -3.2100 H   0  0  0  0  0  0  0  0  0  0  0  0
   -0.1033   -2.8190   -2.7966 H   0  0  0  0  0  0  0  0  0  0  0  0
    0.7929   -1.6217   -4.7512 H   0  0  0  0  0  0  0  0  0  0  0  0
    1.9357   -1.5038   -3.4229 H   0  0  0  0  0  0  0  0  0  0  0  0
    1.7788    0.6015   -4.2746 H   0  0  0  0  0  0  0  0  0  0  0  0
    1.1899    1.9005   -2.6034 H   0  0  0  0  0  0  0  0  0  0  0  0
   -0.4476    1.2744   -2.6529 H   0  0  0  0  0  0  0  0  0  0  0  0
    1.9475   -0.1357   -1.3701 H   0  0  0  0  0  0  0  0  0  0  0  0
    1.3152    1.8691   -0.1331 H   0  0  0  0  0  0  0  0  0  0  0  0
    0.9226    0.3935    0.7895 H   0  0  0  0  0  0  0  0  0  0  0  0
   -3.0860    2.1733    0.2813 H   0  0  0  0  0  0  0  0  0  0  0  0
   -4.0307    3.4854    2.1834 H   0  0  0  0  0  0  0  0  0  0  0  0
   -1.3045    3.8990    5.9553 H   0  0  0  0  0  0  0  0  0  0  0  0
   -0.9299    5.4147    5.0976 H   0  0  0  0  0  0  0  0  0  0  0  0
    0.8154    2.2743    2.1640 H   0  0  0  0  0  0  0  0  0  0  0  0
  1  2  1  0
  2  3  1  0
  3  4  2  0
  4  5  1  0
  5  6  2  0
  6  7  1  0
  5  8  1  0
  8  9  1  0
  9 10  1  0
 10 11  1  0
 11 12  1  0
 12 13  1  0
 13 14  1  0
 14 15  1  0
 15 16  1  0
 16 17  1  0
 17 18  2  0
 18 19  1  0
 19 20  1  0
 20 21  1  0
 21 22  1  0
 22 23  1  0
 23 24  1  0
  7  2  2  0
 13  8  1  0
 24 16  2  0
 23 19  2  0
  3 25  1  0
  4 26  1  0
  6 27  1  0
  7 28  1  0
  8 29  1  1
  9 30  1  0
  9 31  1  0
 10 32  1  0
 10 33  1  0
 11 34  1  0
 12 35  1  0
 12 36  1  0
 13 37  1  6
 14 38  1  0
 14 39  1  0
 17 40  1  0
 18 41  1  0
 21 42  1  0
 21 43  1  0
 24 44  1  0
M  END
>  <source>  (1) 
RCSB CCD 8PR graph and canonical stereochemistry; all source coordinates discarded

>  <conformer_method>  (1) 
RDKit ETKDGv3 useRandomCoords=True, one thread, then MMFF94

>  <conformer_seed>  (1) 
2201

$$$$
