seed-5301
     RDKit          3D

 43 44  0  0  0  0  0  0  0  0999 V2000
  134.5770  124.7530  118.8710 C   0  0  0  0  0  0  0  0  0  0  0  0
  134.5720  124.6060  120.2940 O   0  0  0  0  0  0  0  0  0  0  0  0
  135.3340  123.5760  120.7390 C   0  0  0  0  0  0  0  0  0  0  0  0
  135.6670  122.5970  120.0920 O   0  0  0  0  0  0  0  0  0  0  0  0
  135.7080  123.7810  122.1660 C   0  0  0  0  0  0  0  0  0  0  0  0
  136.0930  125.0650  122.5690 C   0  0  0  0  0  0  0  0  0  0  0  0
  136.4500  125.3080  123.8950 C   0  0  0  0  0  0  0  0  0  0  0  0
  136.4370  124.2700  124.8270 C   0  0  0  0  0  0  0  0  0  0  0  0
  136.0710  122.9740  124.4400 C   0  0  0  0  0  0  0  0  0  0  0  0
  136.1020  121.8410  125.4410 C   0  0  0  0  0  0  0  0  0  0  0  0
  135.1360  122.0500  126.6170 C   0  0  0  0  0  0  0  0  0  0  0  0
  133.6860  122.1070  126.1660 N   0  0  1  0  0  0  0  0  0  0  0  0
  132.8430  121.0080  126.7530 C   0  0  0  0  0  0  0  0  0  0  0  0
  133.0800  123.4790  126.3910 C   0  0  0  0  0  0  0  0  0  0  0  0
  132.7570  124.1940  125.1080 C   0  0  0  0  0  0  0  0  0  0  0  0
  132.9290  125.5850  125.0060 C   0  0  0  0  0  0  0  0  0  0  0  0
  132.6530  126.2450  123.8080 C   0  0  0  0  0  0  0  0  0  0  0  0
  132.2040  125.5270  122.7030 C   0  0  0  0  0  0  0  0  0  0  0  0
  132.0230  124.1480  122.7930 C   0  0  0  0  0  0  0  0  0  0  0  0
  132.2960  123.4830  123.9890 C   0  0  0  0  0  0  0  0  0  0  0  0
  135.6960  122.7390  123.1070 C   0  0  0  0  0  0  0  0  0  0  0  0
  134.6133  125.8217  118.6129 H   0  0  0  0  0  0  0  0  0  0  0  0
  135.4584  124.2447  118.4530 H   0  0  0  0  0  0  0  0  0  0  0  0
  133.6631  124.3056  118.4530 H   0  0  0  0  0  0  0  0  0  0  0  0
  136.1141  125.8857  121.8368 H   0  0  0  0  0  0  0  0  0  0  0  0
  136.7428  126.3214  124.2071 H   0  0  0  0  0  0  0  0  0  0  0  0
  136.7158  124.4702  125.8721 H   0  0  0  0  0  0  0  0  0  0  0  0
  135.8281  120.9095  124.9241 H   0  0  0  0  0  0  0  0  0  0  0  0
  137.1198  121.7974  125.8560 H   0  0  0  0  0  0  0  0  0  0  0  0
  135.2542  121.2164  127.3249 H   0  0  0  0  0  0  0  0  0  0  0  0
  135.3811  123.0133  127.0881 H   0  0  0  0  0  0  0  0  0  0  0  0
  133.6750  121.9740  125.1460 H   0  0  0  0  0  0  0  0  0  0  0  0
  132.8838  121.0612  127.8510 H   0  0  0  0  0  0  0  0  0  0  0  0
  131.8017  121.1262  126.4186 H   0  0  0  0  0  0  0  0  0  0  0  0
  133.2270  120.0329  126.4186 H   0  0  0  0  0  0  0  0  0  0  0  0
  132.1525  123.3622  126.9707 H   0  0  0  0  0  0  0  0  0  0  0  0
  133.8249  124.0847  126.9278 H   0  0  0  0  0  0  0  0  0  0  0  0
  133.2835  126.1571  125.8761 H   0  0  0  0  0  0  0  0  0  0  0  0
  132.7904  127.3341  123.7366 H   0  0  0  0  0  0  0  0  0  0  0  0
  131.9919  126.0485  121.7580 H   0  0  0  0  0  0  0  0  0  0  0  0
  131.6644  123.5830  121.9200 H   0  0  0  0  0  0  0  0  0  0  0  0
  132.1490  122.3949  124.0553 H   0  0  0  0  0  0  0  0  0  0  0  0
  135.3900  121.7289  122.7973 H   0  0  0  0  0  0  0  0  0  0  0  0
  1  2  1  0
  2  3  1  0
  3  4  2  0
  3  5  1  0
  5  6  1  0
  6  7  2  0
  7  8  1  0
  8  9  2  0
  9 10  1  0
 10 11  1  0
 11 12  1  0
 12 13  1  0
 12 14  1  0
 14 15  1  0
 15 16  2  0
 16 17  1  0
 17 18  2  0
 18 19  1  0
 19 20  2  0
  9 21  1  0
 21  5  2  0
 20 15  1  0
  1 22  1  0
  1 23  1  0
  1 24  1  0
  6 25  1  0
  7 26  1  0
  8 27  1  0
 10 28  1  0
 10 29  1  0
 11 30  1  0
 11 31  1  0
 12 32  1  6
 13 33  1  0
 13 34  1  0
 13 35  1  0
 14 36  1  0
 14 37  1  0
 16 38  1  0
 17 39  1  0
 18 40  1  0
 19 41  1  0
 20 42  1  0
 21 43  1  0
M  CHG  1  12   1
M  END
>  <meeko>  (1) 
{"is_sidechain": [false], "free_energy": -7.277, "intermolecular_energy": -10.255, "internal_energy": -2.525}

$$$$
seed-5301
     RDKit          3D

 43 44  0  0  0  0  0  0  0  0999 V2000
  129.2430  127.9820  127.0130 C   0  0  0  0  0  0  0  0  0  0  0  0
  130.2350  127.0560  127.4680 O   0  0  0  0  0  0  0  0  0  0  0  0
  131.3390  127.0080  126.6820 C   0  0  0  0  0  0  0  0  0  0  0  0
  132.1300  127.9180  126.5000 O   0  0  0  0  0  0  0  0  0  0  0  0
  131.4580  125.6750  126.0290 C   0  0  0  0  0  0  0  0  0  0  0  0
  131.0700  124.5460  126.7580 C   0  0  0  0  0  0  0  0  0  0  0  0
  131.1610  123.2750  126.1900 C   0  0  0  0  0  0  0  0  0  0  0  0
  131.6500  123.1210  124.8920 C   0  0  0  0  0  0  0  0  0  0  0  0
  132.0590  124.2370  124.1510 C   0  0  0  0  0  0  0  0  0  0  0  0
  132.6330  124.0640  122.7630 C   0  0  0  0  0  0  0  0  0  0  0  0
  133.9930  124.7560  122.5830 C   0  0  0  0  0  0  0  0  0  0  0  0
  135.0970  123.7700  122.2370 N   0  0  1  0  0  0  0  0  0  0  0  0
  135.7360  124.0450  120.9040 C   0  0  0  0  0  0  0  0  0  0  0  0
  136.1180  123.6570  123.3520 C   0  0  0  0  0  0  0  0  0  0  0  0
  135.5690  122.9930  124.5850 C   0  0  0  0  0  0  0  0  0  0  0  0
  135.3750  123.7330  125.7640 C   0  0  0  0  0  0  0  0  0  0  0  0
  134.8410  123.1240  126.9000 C   0  0  0  0  0  0  0  0  0  0  0  0
  134.4970  121.7750  126.8720 C   0  0  0  0  0  0  0  0  0  0  0  0
  134.6900  121.0290  125.7110 C   0  0  0  0  0  0  0  0  0  0  0  0
  135.2240  121.6330  124.5720 C   0  0  0  0  0  0  0  0  0  0  0  0
  131.9500  125.5160  124.7230 C   0  0  0  0  0  0  0  0  0  0  0  0
  128.7479  128.4442  127.8797 H   0  0  0  0  0  0  0  0  0  0  0  0
  129.7222  128.7633  126.4048 H   0  0  0  0  0  0  0  0  0  0  0  0
  128.4965  127.4502  126.4048 H   0  0  0  0  0  0  0  0  0  0  0  0
  130.6912  124.6609  127.7843 H   0  0  0  0  0  0  0  0  0  0  0  0
  130.8467  122.3924  126.7664 H   0  0  0  0  0  0  0  0  0  0  0  0
  131.7146  122.1167  124.4480 H   0  0  0  0  0  0  0  0  0  0  0  0
  132.7586  122.9888  122.5675 H   0  0  0  0  0  0  0  0  0  0  0  0
  131.9309  124.5315  122.0569 H   0  0  0  0  0  0  0  0  0  0  0  0
  133.9103  125.4943  121.7718 H   0  0  0  0  0  0  0  0  0  0  0  0
  134.2562  125.2371  123.5366 H   0  0  0  0  0  0  0  0  0  0  0  0
  134.6680  122.8380  122.1730 H   0  0  0  0  0  0  0  0  0  0  0  0
  136.7363  124.4755  121.0588 H   0  0  0  0  0  0  0  0  0  0  0  0
  135.8246  123.1053  120.3390 H   0  0  0  0  0  0  0  0  0  0  0  0
  135.1145  124.7553  120.3390 H   0  0  0  0  0  0  0  0  0  0  0  0
  136.9721  123.0677  122.9871 H   0  0  0  0  0  0  0  0  0  0  0  0
  136.4145  124.6786  123.6321 H   0  0  0  0  0  0  0  0  0  0  0  0
  135.6458  124.7988  125.7913 H   0  0  0  0  0  0  0  0  0  0  0  0
  134.6916  123.7101  127.8188 H   0  0  0  0  0  0  0  0  0  0  0  0
  134.0724  121.2977  127.7675 H   0  0  0  0  0  0  0  0  0  0  0  0
  134.4211  119.9625  125.6923 H   0  0  0  0  0  0  0  0  0  0  0  0
  135.3754  121.0393  123.6584 H   0  0  0  0  0  0  0  0  0  0  0  0
  132.2526  126.4003  124.1429 H   0  0  0  0  0  0  0  0  0  0  0  0
  1  2  1  0
  2  3  1  0
  3  4  2  0
  3  5  1  0
  5  6  1  0
  6  7  2  0
  7  8  1  0
  8  9  2  0
  9 10  1  0
 10 11  1  0
 11 12  1  0
 12 13  1  0
 12 14  1  0
 14 15  1  0
 15 16  2  0
 16 17  1  0
 17 18  2  0
 18 19  1  0
 19 20  2  0
  9 21  1  0
 21  5  2  0
 20 15  1  0
  1 22  1  0
  1 23  1  0
  1 24  1  0
  6 25  1  0
  7 26  1  0
  8 27  1  0
 10 28  1  0
 10 29  1  0
 11 30  1  0
 11 31  1  0
 12 32  1  6
 13 33  1  0
 13 34  1  0
 13 35  1  0
 14 36  1  0
 14 37  1  0
 16 38  1  0
 17 39  1  0
 18 40  1  0
 19 41  1  0
 20 42  1  0
 21 43  1  0
M  CHG  1  12   1
M  END
>  <meeko>  (2) 
{"is_sidechain": [false], "free_energy": -7.161, "intermolecular_energy": -10.474, "internal_energy": -2.143}

$$$$
seed-5301
     RDKit          3D

 43 44  0  0  0  0  0  0  0  0999 V2000
  134.9850  122.9100  117.2080 C   0  0  0  0  0  0  0  0  0  0  0  0
  134.9830  123.3750  118.5620 O   0  0  0  0  0  0  0  0  0  0  0  0
  134.5940  124.6670  118.6940 C   0  0  0  0  0  0  0  0  0  0  0  0
  134.2200  125.4000  117.7940 O   0  0  0  0  0  0  0  0  0  0  0  0
  134.7050  125.1030  120.1140 C   0  0  0  0  0  0  0  0  0  0  0  0
  135.9850  125.2820  120.6510 C   0  0  0  0  0  0  0  0  0  0  0  0
  136.1410  125.6910  121.9750 C   0  0  0  0  0  0  0  0  0  0  0  0
  135.0220  125.9150  122.7770 C   0  0  0  0  0  0  0  0  0  0  0  0
  133.7320  125.7260  122.2640 C   0  0  0  0  0  0  0  0  0  0  0  0
  132.5210  125.9240  123.1470 C   0  0  0  0  0  0  0  0  0  0  0  0
  132.8630  125.9260  124.6450 C   0  0  0  0  0  0  0  0  0  0  0  0
  132.1530  124.8140  125.3970 N   0  0  1  0  0  0  0  0  0  0  0  0
  130.7170  125.1360  125.7080 C   0  0  0  0  0  0  0  0  0  0  0  0
  132.3030  123.4770  124.6970 C   0  0  0  0  0  0  0  0  0  0  0  0
  133.5790  122.7670  125.0570 C   0  0  0  0  0  0  0  0  0  0  0  0
  133.7670  122.2570  126.3530 C   0  0  0  0  0  0  0  0  0  0  0  0
  134.9390  121.5750  126.6810 C   0  0  0  0  0  0  0  0  0  0  0  0
  135.9340  121.3980  125.7230 C   0  0  0  0  0  0  0  0  0  0  0  0
  135.7630  121.9050  124.4360 C   0  0  0  0  0  0  0  0  0  0  0  0
  134.5920  122.5880  124.1030 C   0  0  0  0  0  0  0  0  0  0  0  0
  133.5800  125.3300  120.9240 C   0  0  0  0  0  0  0  0  0  0  0  0
  134.9897  121.8101  117.1981 H   0  0  0  0  0  0  0  0  0  0  0  0
  134.0853  123.2775  116.6928 H   0  0  0  0  0  0  0  0  0  0  0  0
  135.8815  123.2852  116.6928 H   0  0  0  0  0  0  0  0  0  0  0  0
  136.8716  125.0993  120.0261 H   0  0  0  0  0  0  0  0  0  0  0  0
  137.1498  125.8375  122.3883 H   0  0  0  0  0  0  0  0  0  0  0  0
  135.1532  126.2422  123.8190 H   0  0  0  0  0  0  0  0  0  0  0  0
  132.0557  126.8877  122.8926 H   0  0  0  0  0  0  0  0  0  0  0  0
  131.8408  125.0786  122.9663 H   0  0  0  0  0  0  0  0  0  0  0  0
  133.9490  125.7945  124.7606 H   0  0  0  0  0  0  0  0  0  0  0  0
  132.5288  126.8855  125.0664 H   0  0  0  0  0  0  0  0  0  0  0  0
  132.6310  124.6970  126.3000 H   0  0  0  0  0  0  0  0  0  0  0  0
  130.5762  125.1676  126.7985 H   0  0  0  0  0  0  0  0  0  0  0  0
  130.4588  126.1143  125.2765 H   0  0  0  0  0  0  0  0  0  0  0  0
  130.0658  124.3616  125.2765 H   0  0  0  0  0  0  0  0  0  0  0  0
  131.4539  122.8366  124.9780 H   0  0  0  0  0  0  0  0  0  0  0  0
  132.3283  123.6724  123.6148 H   0  0  0  0  0  0  0  0  0  0  0  0
  132.9849  122.3965  127.1138 H   0  0  0  0  0  0  0  0  0  0  0  0
  135.0772  121.1768  127.6970 H   0  0  0  0  0  0  0  0  0  0  0  0
  136.8562  120.8573  125.9823 H   0  0  0  0  0  0  0  0  0  0  0  0
  136.5517  121.7668  123.6818 H   0  0  0  0  0  0  0  0  0  0  0  0
  134.4627  122.9882  123.0866 H   0  0  0  0  0  0  0  0  0  0  0  0
  132.5713  125.1967  120.5059 H   0  0  0  0  0  0  0  0  0  0  0  0
  1  2  1  0
  2  3  1  0
  3  4  2  0
  3  5  1  0
  5  6  1  0
  6  7  2  0
  7  8  1  0
  8  9  2  0
  9 10  1  0
 10 11  1  0
 11 12  1  0
 12 13  1  0
 12 14  1  0
 14 15  1  0
 15 16  2  0
 16 17  1  0
 17 18  2  0
 18 19  1  0
 19 20  2  0
  9 21  1  0
 21  5  2  0
 20 15  1  0
  1 22  1  0
  1 23  1  0
  1 24  1  0
  6 25  1  0
  7 26  1  0
  8 27  1  0
 10 28  1  0
 10 29  1  0
 11 30  1  0
 11 31  1  0
 12 32  1  1
 13 33  1  0
 13 34  1  0
 13 35  1  0
 14 36  1  0
 14 37  1  0
 16 38  1  0
 17 39  1  0
 18 40  1  0
 19 41  1  0
 20 42  1  0
 21 43  1  0
M  CHG  1  12   1
M  END
>  <meeko>  (3) 
{"is_sidechain": [false], "free_energy": -7.079, "intermolecular_energy": -11.31, "internal_energy": -1.191}

$$$$
seed-5301
     RDKit          3D

 43 44  0  0  0  0  0  0  0  0999 V2000
  135.0120  122.4690  115.9700 C   0  0  0  0  0  0  0  0  0  0  0  0
  134.2390  122.5820  117.1690 O   0  0  0  0  0  0  0  0  0  0  0  0
  134.0900  123.8580  117.6040 C   0  0  0  0  0  0  0  0  0  0  0  0
  133.5280  124.7600  117.0050 O   0  0  0  0  0  0  0  0  0  0  0  0
  134.7380  124.0360  118.9330 C   0  0  0  0  0  0  0  0  0  0  0  0
  135.7120  123.1100  119.3210 C   0  0  0  0  0  0  0  0  0  0  0  0
  136.3490  123.2340  120.5560 C   0  0  0  0  0  0  0  0  0  0  0  0
  136.0110  124.2790  121.4170 C   0  0  0  0  0  0  0  0  0  0  0  0
  135.0270  125.2080  121.0540 C   0  0  0  0  0  0  0  0  0  0  0  0
  134.6300  126.3110  122.0080 C   0  0  0  0  0  0  0  0  0  0  0  0
  135.8250  126.9160  122.7610 C   0  0  0  0  0  0  0  0  0  0  0  0
  135.9760  126.3370  124.1570 N   0  0  1  0  0  0  0  0  0  0  0  0
  136.4680  127.3430  125.1620 C   0  0  0  0  0  0  0  0  0  0  0  0
  134.7100  125.6390  124.6160 C   0  0  0  0  0  0  0  0  0  0  0  0
  134.8960  124.1600  124.8160 C   0  0  0  0  0  0  0  0  0  0  0  0
  136.1820  123.5940  124.7760 C   0  0  0  0  0  0  0  0  0  0  0  0
  136.3580  122.2260  124.9870 C   0  0  0  0  0  0  0  0  0  0  0  0
  135.2570  121.4120  125.2390 C   0  0  0  0  0  0  0  0  0  0  0  0
  133.9770  121.9600  125.2750 C   0  0  0  0  0  0  0  0  0  0  0  0
  133.7950  123.3270  125.0640 C   0  0  0  0  0  0  0  0  0  0  0  0
  134.4010  125.0860  119.8020 C   0  0  0  0  0  0  0  0  0  0  0  0
  136.0698  122.3144  116.2289 H   0  0  0  0  0  0  0  0  0  0  0  0
  134.6502  121.6142  115.3797 H   0  0  0  0  0  0  0  0  0  0  0  0
  134.9101  123.3916  115.3797 H   0  0  0  0  0  0  0  0  0  0  0  0
  135.9769  122.2802  118.6492 H   0  0  0  0  0  0  0  0  0  0  0  0
  137.1193  122.5065  120.8517 H   0  0  0  0  0  0  0  0  0  0  0  0
  136.5206  124.3740  122.3872 H   0  0  0  0  0  0  0  0  0  0  0  0
  134.1372  127.1096  121.4341 H   0  0  0  0  0  0  0  0  0  0  0  0
  133.9588  125.8691  122.7591 H   0  0  0  0  0  0  0  0  0  0  0  0
  136.7433  126.7111  122.1912 H   0  0  0  0  0  0  0  0  0  0  0  0
  135.6489  127.9972  122.8610 H   0  0  0  0  0  0  0  0  0  0  0  0
  136.6860  125.5960  124.1090 H   0  0  0  0  0  0  0  0  0  0  0  0
  136.2836  126.9659  126.1787 H   0  0  0  0  0  0  0  0  0  0  0  0
  137.5469  127.5047  125.0210 H   0  0  0  0  0  0  0  0  0  0  0  0
  135.9332  128.2939  125.0210 H   0  0  0  0  0  0  0  0  0  0  0  0
  134.3897  126.0844  125.5694 H   0  0  0  0  0  0  0  0  0  0  0  0
  133.9551  125.7728  123.8272 H   0  0  0  0  0  0  0  0  0  0  0  0
  137.0548  124.2333  124.5772 H   0  0  0  0  0  0  0  0  0  0  0  0
  137.3675  121.7903  124.9542 H   0  0  0  0  0  0  0  0  0  0  0  0
  135.3982  120.3346  125.4099 H   0  0  0  0  0  0  0  0  0  0  0  0
  133.1083  121.3140  125.4701 H   0  0  0  0  0  0  0  0  0  0  0  0
  132.7818  123.7543  125.0923 H   0  0  0  0  0  0  0  0  0  0  0  0
  133.6396  125.8201  119.4998 H   0  0  0  0  0  0  0  0  0  0  0  0
  1  2  1  0
  2  3  1  0
  3  4  2  0
  3  5  1  0
  5  6  1  0
  6  7  2  0
  7  8  1  0
  8  9  2  0
  9 10  1  0
 10 11  1  0
 11 12  1  0
 12 13  1  0
 12 14  1  0
 14 15  1  0
 15 16  2  0
 16 17  1  0
 17 18  2  0
 18 19  1  0
 19 20  2  0
  9 21  1  0
 21  5  2  0
 20 15  1  0
  1 22  1  0
  1 23  1  0
  1 24  1  0
  6 25  1  0
  7 26  1  0
  8 27  1  0
 10 28  1  0
 10 29  1  0
 11 30  1  0
 11 31  1  0
 12 32  1  6
 13 33  1  0
 13 34  1  0
 13 35  1  0
 14 36  1  0
 14 37  1  0
 16 38  1  0
 17 39  1  0
 18 40  1  0
 19 41  1  0
 20 42  1  0
 21 43  1  0
M  CHG  1  12   1
M  END
>  <meeko>  (4) 
{"is_sidechain": [false], "free_energy": -7.029, "intermolecular_energy": -11.578, "internal_energy": -0.852}

$$$$
seed-5301
     RDKit          3D

 43 44  0  0  0  0  0  0  0  0999 V2000
  133.0490  124.1180  116.9700 C   0  0  0  0  0  0  0  0  0  0  0  0
  133.8710  124.6640  118.0060 O   0  0  0  0  0  0  0  0  0  0  0  0
  134.8880  123.8490  118.3820 C   0  0  0  0  0  0  0  0  0  0  0  0
  135.5240  123.1100  117.6490 O   0  0  0  0  0  0  0  0  0  0  0  0
  135.1250  123.9520  119.8490 C   0  0  0  0  0  0  0  0  0  0  0  0
  136.2010  123.2420  120.3940 C   0  0  0  0  0  0  0  0  0  0  0  0
  136.4660  123.3080  121.7620 C   0  0  0  0  0  0  0  0  0  0  0  0
  135.6520  124.0730  122.5980 C   0  0  0  0  0  0  0  0  0  0  0  0
  134.5600  124.7770  122.0750 C   0  0  0  0  0  0  0  0  0  0  0  0
  133.6520  125.5680  122.9890 C   0  0  0  0  0  0  0  0  0  0  0  0
  134.2850  125.8630  124.3580 C   0  0  0  0  0  0  0  0  0  0  0  0
  133.3450  125.5390  125.5060 N   0  0  1  0  0  0  0  0  0  0  0  0
  132.2360  126.5430  125.6610 C   0  0  0  0  0  0  0  0  0  0  0  0
  132.8240  124.1170  125.4220 C   0  0  0  0  0  0  0  0  0  0  0  0
  133.8810  123.0880  125.7170 C   0  0  0  0  0  0  0  0  0  0  0  0
  134.6980  123.2140  126.8540 C   0  0  0  0  0  0  0  0  0  0  0  0
  135.6610  122.2470  127.1430 C   0  0  0  0  0  0  0  0  0  0  0  0
  135.8190  121.1480  126.3030 C   0  0  0  0  0  0  0  0  0  0  0  0
  135.0190  121.0140  125.1700 C   0  0  0  0  0  0  0  0  0  0  0  0
  134.0550  121.9790  124.8760 C   0  0  0  0  0  0  0  0  0  0  0  0
  134.3090  124.7210  120.6930 C   0  0  0  0  0  0  0  0  0  0  0  0
  132.2128  123.5626  117.4198 H   0  0  0  0  0  0  0  0  0  0  0  0
  132.6542  124.9340  116.3469 H   0  0  0  0  0  0  0  0  0  0  0  0
  133.6480  123.4377  116.3469 H   0  0  0  0  0  0  0  0  0  0  0  0
  136.8402  122.6295  119.7411 H   0  0  0  0  0  0  0  0  0  0  0  0
  137.3190  122.7554  122.1828 H   0  0  0  0  0  0  0  0  0  0  0  0
  135.8693  124.1235  123.6751 H   0  0  0  0  0  0  0  0  0  0  0  0
  133.4107  126.5240  122.5013 H   0  0  0  0  0  0  0  0  0  0  0  0
  132.7536  124.9588  123.1670 H   0  0  0  0  0  0  0  0  0  0  0  0
  135.1968  125.2569  124.4648 H   0  0  0  0  0  0  0  0  0  0  0  0
  134.5122  126.9385  124.4005 H   0  0  0  0  0  0  0  0  0  0  0  0
  133.8950  125.5700  126.3740 H   0  0  0  0  0  0  0  0  0  0  0  0
  132.0449  126.7160  126.7304 H   0  0  0  0  0  0  0  0  0  0  0  0
  132.5288  127.4895  125.1830 H   0  0  0  0  0  0  0  0  0  0  0  0
  131.3232  126.1578  125.1830 H   0  0  0  0  0  0  0  0  0  0  0  0
  132.0068  123.9991  126.1488 H   0  0  0  0  0  0  0  0  0  0  0  0
  132.4810  123.9515  124.3900 H   0  0  0  0  0  0  0  0  0  0  0  0
  134.5771  124.0809  127.5202 H   0  0  0  0  0  0  0  0  0  0  0  0
  136.2959  122.3528  128.0350 H   0  0  0  0  0  0  0  0  0  0  0  0
  136.5764  120.3845  126.5340 H   0  0  0  0  0  0  0  0  0  0  0  0
  135.1476  120.1462  124.5064 H   0  0  0  0  0  0  0  0  0  0  0  0
  133.4276  121.8694  123.9791 H   0  0  0  0  0  0  0  0  0  0  0  0
  133.4652  125.2852  120.2692 H   0  0  0  0  0  0  0  0  0  0  0  0
  1  2  1  0
  2  3  1  0
  3  4  2  0
  3  5  1  0
  5  6  1  0
  6  7  2  0
  7  8  1  0
  8  9  2  0
  9 10  1  0
 10 11  1  0
 11 12  1  0
 12 13  1  0
 12 14  1  0
 14 15  1  0
 15 16  2  0
 16 17  1  0
 17 18  2  0
 18 19  1  0
 19 20  2  0
  9 21  1  0
 21  5  2  0
 20 15  1  0
  1 22  1  0
  1 23  1  0
  1 24  1  0
  6 25  1  0
  7 26  1  0
  8 27  1  0
 10 28  1  0
 10 29  1  0
 11 30  1  0
 11 31  1  0
 12 32  1  1
 13 33  1  0
 13 34  1  0
 13 35  1  0
 14 36  1  0
 14 37  1  0
 16 38  1  0
 17 39  1  0
 18 40  1  0
 19 41  1  0
 20 42  1  0
 21 43  1  0
M  CHG  1  12   1
M  END
>  <meeko>  (5) 
{"is_sidechain": [false], "free_energy": -6.866, "intermolecular_energy": -11.025, "internal_energy": -1.175}

$$$$
seed-5301
     RDKit          3D

 43 44  0  0  0  0  0  0  0  0999 V2000
  127.4360  123.3380  128.8800 C   0  0  0  0  0  0  0  0  0  0  0  0
  128.6050  123.1710  128.0730 O   0  0  0  0  0  0  0  0  0  0  0  0
  128.8760  124.2360  127.2790 C   0  0  0  0  0  0  0  0  0  0  0  0
  128.0750  125.0790  126.9090 O   0  0  0  0  0  0  0  0  0  0  0  0
  130.3110  124.2390  126.8800 C   0  0  0  0  0  0  0  0  0  0  0  0
  130.9150  125.4700  126.5990 C   0  0  0  0  0  0  0  0  0  0  0  0
  132.2570  125.5260  126.2240 C   0  0  0  0  0  0  0  0  0  0  0  0
  133.0040  124.3530  126.1160 C   0  0  0  0  0  0  0  0  0  0  0  0
  132.4150  123.1090  126.3770 C   0  0  0  0  0  0  0  0  0  0  0  0
  133.2130  121.8350  126.2140 C   0  0  0  0  0  0  0  0  0  0  0  0
  134.5510  121.8630  126.9690 C   0  0  0  0  0  0  0  0  0  0  0  0
  135.7390  121.9570  126.0270 N   0  0  1  0  0  0  0  0  0  0  0  0
  136.9020  121.1060  126.4590 C   0  0  0  0  0  0  0  0  0  0  0  0
  135.3380  121.6930  124.5880 C   0  0  0  0  0  0  0  0  0  0  0  0
  135.5960  122.8670  123.6840 C   0  0  0  0  0  0  0  0  0  0  0  0
  135.3270  122.7760  122.3080 C   0  0  0  0  0  0  0  0  0  0  0  0
  135.5410  123.8730  121.4720 C   0  0  0  0  0  0  0  0  0  0  0  0
  136.0260  125.0670  121.9990 C   0  0  0  0  0  0  0  0  0  0  0  0
  136.3030  125.1680  123.3610 C   0  0  0  0  0  0  0  0  0  0  0  0
  136.0900  124.0730  124.2010 C   0  0  0  0  0  0  0  0  0  0  0  0
  131.0660  123.0610  126.7700 C   0  0  0  0  0  0  0  0  0  0  0  0
  127.7156  123.2981  129.9431 H   0  0  0  0  0  0  0  0  0  0  0  0
  126.9737  124.3113  128.6588 H   0  0  0  0  0  0  0  0  0  0  0  0
  126.7197  122.5331  128.6588 H   0  0  0  0  0  0  0  0  0  0  0  0
  130.3284  126.3975  126.6743 H   0  0  0  0  0  0  0  0  0  0  0  0
  132.7276  126.4976  126.0129 H   0  0  0  0  0  0  0  0  0  0  0  0
  134.0632  124.4051  125.8238 H   0  0  0  0  0  0  0  0  0  0  0  0
  132.6135  120.9949  126.5945 H   0  0  0  0  0  0  0  0  0  0  0  0
  133.4418  121.7251  125.1437 H   0  0  0  0  0  0  0  0  0  0  0  0
  134.5610  122.7346  127.6400 H   0  0  0  0  0  0  0  0  0  0  0  0
  134.6405  120.9228  127.5330 H   0  0  0  0  0  0  0  0  0  0  0  0
  136.0660  122.9310  126.0380 H   0  0  0  0  0  0  0  0  0  0  0  0
  136.9451  121.0745  127.5577 H   0  0  0  0  0  0  0  0  0  0  0  0
  136.7752  120.0858  126.0676 H   0  0  0  0  0  0  0  0  0  0  0  0
  137.8360  121.5355  126.0676 H   0  0  0  0  0  0  0  0  0  0  0  0
  135.9114  120.8310  124.2163 H   0  0  0  0  0  0  0  0  0  0  0  0
  134.2552  121.4996  124.5771 H   0  0  0  0  0  0  0  0  0  0  0  0
  134.9453  121.8342  121.8869 H   0  0  0  0  0  0  0  0  0  0  0  0
  135.3263  123.7942  120.3960 H   0  0  0  0  0  0  0  0  0  0  0  0
  136.1907  125.9317  121.3394 H   0  0  0  0  0  0  0  0  0  0  0  0
  136.6897  126.1110  123.7747 H   0  0  0  0  0  0  0  0  0  0  0  0
  136.3112  124.1572  125.2752 H   0  0  0  0  0  0  0  0  0  0  0  0
  130.5978  122.0910  126.9934 H   0  0  0  0  0  0  0  0  0  0  0  0
  1  2  1  0
  2  3  1  0
  3  4  2  0
  3  5  1  0
  5  6  1  0
  6  7  2  0
  7  8  1  0
  8  9  2  0
  9 10  1  0
 10 11  1  0
 11 12  1  0
 12 13  1  0
 12 14  1  0
 14 15  1  0
 15 16  2  0
 16 17  1  0
 17 18  2  0
 18 19  1  0
 19 20  2  0
  9 21  1  0
 21  5  2  0
 20 15  1  0
  1 22  1  0
  1 23  1  0
  1 24  1  0
  6 25  1  0
  7 26  1  0
  8 27  1  0
 10 28  1  0
 10 29  1  0
 11 30  1  0
 11 31  1  0
 12 32  1  6
 13 33  1  0
 13 34  1  0
 13 35  1  0
 14 36  1  0
 14 37  1  0
 16 38  1  0
 17 39  1  0
 18 40  1  0
 19 41  1  0
 20 42  1  0
 21 43  1  0
M  CHG  1  12   1
M  END
>  <meeko>  (6) 
{"is_sidechain": [false], "free_energy": -6.64, "intermolecular_energy": -10.865, "internal_energy": -1.017}

$$$$
seed-5301
     RDKit          3D

 43 44  0  0  0  0  0  0  0  0999 V2000
  134.6550  124.8050  119.1380 C   0  0  0  0  0  0  0  0  0  0  0  0
  135.5840  125.1680  120.1630 O   0  0  0  0  0  0  0  0  0  0  0  0
  135.8400  124.1710  121.0460 C   0  0  0  0  0  0  0  0  0  0  0  0
  136.3870  123.1110  120.7940 O   0  0  0  0  0  0  0  0  0  0  0  0
  135.3330  124.5290  122.4000 C   0  0  0  0  0  0  0  0  0  0  0  0
  136.2690  124.7840  123.4090 C   0  0  0  0  0  0  0  0  0  0  0  0
  135.8450  125.1250  124.6930 C   0  0  0  0  0  0  0  0  0  0  0  0
  134.4830  125.2040  124.9830 C   0  0  0  0  0  0  0  0  0  0  0  0
  133.5290  124.9370  123.9920 C   0  0  0  0  0  0  0  0  0  0  0  0
  132.0540  124.9780  124.3200 C   0  0  0  0  0  0  0  0  0  0  0  0
  131.4940  123.6110  124.7470 C   0  0  0  0  0  0  0  0  0  0  0  0
  131.7400  123.3250  126.2190 N   0  0  1  0  0  0  0  0  0  0  0  0
  130.5520  123.6380  127.0860 C   0  0  0  0  0  0  0  0  0  0  0  0
  132.2570  121.9160  126.4380 C   0  0  0  0  0  0  0  0  0  0  0  0
  133.7480  121.8070  126.2740 C   0  0  0  0  0  0  0  0  0  0  0  0
  134.5990  121.9670  127.3810 C   0  0  0  0  0  0  0  0  0  0  0  0
  135.9810  121.8410  127.2340 C   0  0  0  0  0  0  0  0  0  0  0  0
  136.5260  121.5550  125.9850 C   0  0  0  0  0  0  0  0  0  0  0  0
  135.6940  121.4000  124.8790 C   0  0  0  0  0  0  0  0  0  0  0  0
  134.3110  121.5260  125.0200 C   0  0  0  0  0  0  0  0  0  0  0  0
  133.9630  124.6100  122.6960 C   0  0  0  0  0  0  0  0  0  0  0  0
  133.7245  124.4414  119.5985 H   0  0  0  0  0  0  0  0  0  0  0  0
  134.4361  125.6837  118.5136 H   0  0  0  0  0  0  0  0  0  0  0  0
  135.0898  124.0106  118.5136 H   0  0  0  0  0  0  0  0  0  0  0  0
  137.3444  124.7151  123.1880 H   0  0  0  0  0  0  0  0  0  0  0  0
  136.5863  125.3321  125.4788 H   0  0  0  0  0  0  0  0  0  0  0  0
  134.1555  125.4778  125.9968 H   0  0  0  0  0  0  0  0  0  0  0  0
  131.8975  125.6927  125.1414 H   0  0  0  0  0  0  0  0  0  0  0  0
  131.5224  125.2797  123.4055 H   0  0  0  0  0  0  0  0  0  0  0  0
  130.4101  123.5979  124.5598 H   0  0  0  0  0  0  0  0  0  0  0  0
  132.0105  122.8363  124.1613 H   0  0  0  0  0  0  0  0  0  0  0  0
  132.5030  123.9400  126.5290 H   0  0  0  0  0  0  0  0  0  0  0  0
  130.8406  123.5620  128.1448 H   0  0  0  0  0  0  0  0  0  0  0  0
  130.2020  124.6590  126.8737 H   0  0  0  0  0  0  0  0  0  0  0  0
  129.7444  122.9220  126.8737 H   0  0  0  0  0  0  0  0  0  0  0  0
  131.9921  121.5996  127.4577 H   0  0  0  0  0  0  0  0  0  0  0  0
  131.7934  121.2724  125.6759 H   0  0  0  0  0  0  0  0  0  0  0  0
  134.1730  122.1930  128.3696 H   0  0  0  0  0  0  0  0  0  0  0  0
  136.6402  121.9677  128.1054 H   0  0  0  0  0  0  0  0  0  0  0  0
  137.6152  121.4513  125.8717 H   0  0  0  0  0  0  0  0  0  0  0  0
  136.1274  121.1779  123.8927 H   0  0  0  0  0  0  0  0  0  0  0  0
  133.6587  121.4043  124.1427 H   0  0  0  0  0  0  0  0  0  0  0  0
  133.2224  124.4157  121.9062 H   0  0  0  0  0  0  0  0  0  0  0  0
  1  2  1  0
  2  3  1  0
  3  4  2  0
  3  5  1  0
  5  6  1  0
  6  7  2  0
  7  8  1  0
  8  9  2  0
  9 10  1  0
 10 11  1  0
 11 12  1  0
 12 13  1  0
 12 14  1  0
 14 15  1  0
 15 16  2  0
 16 17  1  0
 17 18  2  0
 18 19  1  0
 19 20  2  0
  9 21  1  0
 21  5  2  0
 20 15  1  0
  1 22  1  0
  1 23  1  0
  1 24  1  0
  6 25  1  0
  7 26  1  0
  8 27  1  0
 10 28  1  0
 10 29  1  0
 11 30  1  0
 11 31  1  0
 12 32  1  1
 13 33  1  0
 13 34  1  0
 13 35  1  0
 14 36  1  0
 14 37  1  0
 16 38  1  0
 17 39  1  0
 18 40  1  0
 19 41  1  0
 20 42  1  0
 21 43  1  0
M  CHG  1  12   1
M  END
>  <meeko>  (7) 
{"is_sidechain": [false], "free_energy": -6.633, "intermolecular_energy": -9.891, "internal_energy": -1.982}

$$$$
seed-5301
     RDKit          3D

 43 44  0  0  0  0  0  0  0  0999 V2000
  131.7950  128.8580  129.0090 C   0  0  0  0  0  0  0  0  0  0  0  0
  130.6440  128.0080  129.0030 O   0  0  0  0  0  0  0  0  0  0  0  0
  130.1680  127.7440  127.7610 C   0  0  0  0  0  0  0  0  0  0  0  0
  129.5930  128.5330  127.0300 O   0  0  0  0  0  0  0  0  0  0  0  0
  130.4180  126.3220  127.3970 C   0  0  0  0  0  0  0  0  0  0  0  0
  129.4430  125.3740  127.7300 C   0  0  0  0  0  0  0  0  0  0  0  0
  129.6300  124.0300  127.4090 C   0  0  0  0  0  0  0  0  0  0  0  0
  130.7950  123.6190  126.7620 C   0  0  0  0  0  0  0  0  0  0  0  0
  131.7910  124.5490  126.4340 C   0  0  0  0  0  0  0  0  0  0  0  0
  133.0730  124.0950  125.7750 C   0  0  0  0  0  0  0  0  0  0  0  0
  133.6680  125.1480  124.8270 C   0  0  0  0  0  0  0  0  0  0  0  0
  133.5360  124.7450  123.3680 N   0  0  1  0  0  0  0  0  0  0  0  0
  132.1240  124.8370  122.8570 C   0  0  0  0  0  0  0  0  0  0  0  0
  134.5160  125.4960  122.4870 C   0  0  0  0  0  0  0  0  0  0  0  0
  134.7210  124.8400  121.1490 C   0  0  0  0  0  0  0  0  0  0  0  0
  134.2680  125.4640  119.9740 C   0  0  0  0  0  0  0  0  0  0  0  0
  134.4810  124.8690  118.7300 C   0  0  0  0  0  0  0  0  0  0  0  0
  135.1450  123.6480  118.6460 C   0  0  0  0  0  0  0  0  0  0  0  0
  135.5940  123.0160  119.8040 C   0  0  0  0  0  0  0  0  0  0  0  0
  135.3830  123.6070  121.0500 C   0  0  0  0  0  0  0  0  0  0  0  0
  131.5900  125.9040  126.7460 C   0  0  0  0  0  0  0  0  0  0  0  0
  132.0865  129.0732  130.0476 H   0  0  0  0  0  0  0  0  0  0  0  0
  132.6253  128.3546  128.4920 H   0  0  0  0  0  0  0  0  0  0  0  0
  131.5581  129.7996  128.4920 H   0  0  0  0  0  0  0  0  0  0  0  0
  128.5253  125.6908  128.2472 H   0  0  0  0  0  0  0  0  0  0  0  0
  128.8563  123.2918  127.6669 H   0  0  0  0  0  0  0  0  0  0  0  0
  130.9332  122.5578  126.5074 H   0  0  0  0  0  0  0  0  0  0  0  0
  133.8110  123.8735  126.5600 H   0  0  0  0  0  0  0  0  0  0  0  0
  132.8353  123.2066  125.1715 H   0  0  0  0  0  0  0  0  0  0  0  0
  133.1410  126.1013  124.9805 H   0  0  0  0  0  0  0  0  0  0  0  0
  134.7397  125.2423  125.0562 H   0  0  0  0  0  0  0  0  0  0  0  0
  133.8120  123.7580  123.2940 H   0  0  0  0  0  0  0  0  0  0  0  0
  131.4283  124.8823  123.7079 H   0  0  0  0  0  0  0  0  0  0  0  0
  132.0140  125.7442  122.2447 H   0  0  0  0  0  0  0  0  0  0  0  0
  131.8972  123.9517  122.2447 H   0  0  0  0  0  0  0  0  0  0  0  0
  134.1326  126.5140  122.3238 H   0  0  0  0  0  0  0  0  0  0  0  0
  135.4870  125.5025  123.0039 H   0  0  0  0  0  0  0  0  0  0  0  0
  133.7419  126.4281  120.0355 H   0  0  0  0  0  0  0  0  0  0  0  0
  134.1242  125.3648  117.8152 H   0  0  0  0  0  0  0  0  0  0  0  0
  135.3154  123.1817  117.6644 H   0  0  0  0  0  0  0  0  0  0  0  0
  136.1155  122.0499  119.7355 H   0  0  0  0  0  0  0  0  0  0  0  0
  135.7381  123.1029  121.9609 H   0  0  0  0  0  0  0  0  0  0  0  0
  132.3579  126.6445  126.4778 H   0  0  0  0  0  0  0  0  0  0  0  0
  1  2  1  0
  2  3  1  0
  3  4  2  0
  3  5  1  0
  5  6  1  0
  6  7  2  0
  7  8  1  0
  8  9  2  0
  9 10  1  0
 10 11  1  0
 11 12  1  0
 12 13  1  0
 12 14  1  0
 14 15  1  0
 15 16  2  0
 16 17  1  0
 17 18  2  0
 18 19  1  0
 19 20  2  0
  9 21  1  0
 21  5  2  0
 20 15  1  0
  1 22  1  0
  1 23  1  0
  1 24  1  0
  6 25  1  0
  7 26  1  0
  8 27  1  0
 10 28  1  0
 10 29  1  0
 11 30  1  0
 11 31  1  0
 12 32  1  1
 13 33  1  0
 13 34  1  0
 13 35  1  0
 14 36  1  0
 14 37  1  0
 16 38  1  0
 17 39  1  0
 18 40  1  0
 19 41  1  0
 20 42  1  0
 21 43  1  0
M  CHG  1  12   1
M  END
>  <meeko>  (8) 
{"is_sidechain": [false], "free_energy": -6.528, "intermolecular_energy": -11.263, "internal_energy": -0.461}

$$$$
seed-5301
     RDKit          3D

 43 44  0  0  0  0  0  0  0  0999 V2000
  131.8990  128.9330  129.0380 C   0  0  0  0  0  0  0  0  0  0  0  0
  131.8790  128.3060  127.7520 O   0  0  0  0  0  0  0  0  0  0  0  0
  130.6500  127.8770  127.3730 C   0  0  0  0  0  0  0  0  0  0  0  0
  129.6610  128.5740  127.2230 O   0  0  0  0  0  0  0  0  0  0  0  0
  130.6500  126.4010  127.1780 C   0  0  0  0  0  0  0  0  0  0  0  0
  129.5830  125.6660  127.7070 C   0  0  0  0  0  0  0  0  0  0  0  0
  129.5350  124.2810  127.5500 C   0  0  0  0  0  0  0  0  0  0  0  0
  130.5580  123.6170  126.8720 C   0  0  0  0  0  0  0  0  0  0  0  0
  131.6440  124.3310  126.3490 C   0  0  0  0  0  0  0  0  0  0  0  0
  132.7740  123.6050  125.6560 C   0  0  0  0  0  0  0  0  0  0  0  0
  133.9020  124.5440  125.2000 C   0  0  0  0  0  0  0  0  0  0  0  0
  135.1140  124.4700  126.1130 N   0  0  1  0  0  0  0  0  0  0  0  0
  135.1640  123.2030  126.9240 C   0  0  0  0  0  0  0  0  0  0  0  0
  136.4040  124.7190  125.3560 C   0  0  0  0  0  0  0  0  0  0  0  0
  136.2570  124.5310  123.8710 C   0  0  0  0  0  0  0  0  0  0  0  0
  136.2300  125.6440  123.0130 C   0  0  0  0  0  0  0  0  0  0  0  0
  136.1200  125.4700  121.6330 C   0  0  0  0  0  0  0  0  0  0  0  0
  136.0350  124.1880  121.0970 C   0  0  0  0  0  0  0  0  0  0  0  0
  136.0550  123.0770  121.9370 C   0  0  0  0  0  0  0  0  0  0  0  0
  136.1640  123.2450  123.3180 C   0  0  0  0  0  0  0  0  0  0  0  0
  131.6770  125.7290  126.4960 C   0  0  0  0  0  0  0  0  0  0  0  0
  131.8744  128.1620  129.8222 H   0  0  0  0  0  0  0  0  0  0  0  0
  132.8167  129.5308  129.1402 H   0  0  0  0  0  0  0  0  0  0  0  0
  131.0213  129.5881  129.1402 H   0  0  0  0  0  0  0  0  0  0  0  0
  128.7780  126.1834  128.2495 H   0  0  0  0  0  0  0  0  0  0  0  0
  128.6890  123.7109  127.9615 H   0  0  0  0  0  0  0  0  0  0  0  0
  130.5114  122.5251  126.7473 H   0  0  0  0  0  0  0  0  0  0  0  0
  133.1944  122.8649  126.3528 H   0  0  0  0  0  0  0  0  0  0  0  0
  132.3567  123.1310  124.7553 H   0  0  0  0  0  0  0  0  0  0  0  0
  134.2078  124.2621  124.1817 H   0  0  0  0  0  0  0  0  0  0  0  0
  133.5176  125.5742  125.2316 H   0  0  0  0  0  0  0  0  0  0  0  0
  135.0440  125.2460  126.7830 H   0  0  0  0  0  0  0  0  0  0  0  0
  135.1541  123.4527  127.9952 H   0  0  0  0  0  0  0  0  0  0  0  0
  134.2898  122.5798  126.6847 H   0  0  0  0  0  0  0  0  0  0  0  0
  136.0846  122.6506  126.6847 H   0  0  0  0  0  0  0  0  0  0  0  0
  136.7301  125.7518  125.5484 H   0  0  0  0  0  0  0  0  0  0  0  0
  137.1417  123.9840  125.7103 H   0  0  0  0  0  0  0  0  0  0  0  0
  136.2960  126.6588  123.4322 H   0  0  0  0  0  0  0  0  0  0  0  0
  136.1004  126.3462  120.9683 H   0  0  0  0  0  0  0  0  0  0  0  0
  135.9519  124.0522  120.0086 H   0  0  0  0  0  0  0  0  0  0  0  0
  135.9847  122.0653  121.5109 H   0  0  0  0  0  0  0  0  0  0  0  0
  136.1771  122.3642  123.9767 H   0  0  0  0  0  0  0  0  0  0  0  0
  132.5154  126.3016  126.0727 H   0  0  0  0  0  0  0  0  0  0  0  0
  1  2  1  0
  2  3  1  0
  3  4  2  0
  3  5  1  0
  5  6  1  0
  6  7  2  0
  7  8  1  0
  8  9  2  0
  9 10  1  0
 10 11  1  0
 11 12  1  0
 12 13  1  0
 12 14  1  0
 14 15  1  0
 15 16  2  0
 16 17  1  0
 17 18  2  0
 18 19  1  0
 19 20  2  0
  9 21  1  0
 21  5  2  0
 20 15  1  0
  1 22  1  0
  1 23  1  0
  1 24  1  0
  6 25  1  0
  7 26  1  0
  8 27  1  0
 10 28  1  0
 10 29  1  0
 11 30  1  0
 11 31  1  0
 12 32  1  1
 13 33  1  0
 13 34  1  0
 13 35  1  0
 14 36  1  0
 14 37  1  0
 16 38  1  0
 17 39  1  0
 18 40  1  0
 19 41  1  0
 20 42  1  0
 21 43  1  0
M  CHG  1  12   1
M  END
>  <meeko>  (9) 
{"is_sidechain": [false], "free_energy": -6.465, "intermolecular_energy": -11.322, "internal_energy": -0.313}

$$$$
seed-5301
     RDKit          3D

 43 44  0  0  0  0  0  0  0  0999 V2000
  131.0480  128.0440  127.8700 C   0  0  0  0  0  0  0  0  0  0  0  0
  131.9470  127.6650  126.8240 O   0  0  0  0  0  0  0  0  0  0  0  0
  131.3470  127.5110  125.6170 C   0  0  0  0  0  0  0  0  0  0  0  0
  130.5760  128.2980  125.0940 O   0  0  0  0  0  0  0  0  0  0  0  0
  131.7370  126.2130  125.0010 C   0  0  0  0  0  0  0  0  0  0  0  0
  131.6880  126.1030  123.6070 C   0  0  0  0  0  0  0  0  0  0  0  0
  132.0450  124.9080  122.9820 C   0  0  0  0  0  0  0  0  0  0  0  0
  132.4440  123.8100  123.7450 C   0  0  0  0  0  0  0  0  0  0  0  0
  132.4840  123.8940  125.1430 C   0  0  0  0  0  0  0  0  0  0  0  0
  132.8720  122.6890  125.9700 C   0  0  0  0  0  0  0  0  0  0  0  0
  134.2490  122.8340  126.6360 C   0  0  0  0  0  0  0  0  0  0  0  0
  135.2110  121.7370  126.2090 N   0  0  1  0  0  0  0  0  0  0  0  0
  134.5680  120.6990  125.3300 C   0  0  0  0  0  0  0  0  0  0  0  0
  136.4750  122.3060  125.5950 C   0  0  0  0  0  0  0  0  0  0  0  0
  136.2000  123.2650  124.4700 C   0  0  0  0  0  0  0  0  0  0  0  0
  136.1540  124.6490  124.7100 C   0  0  0  0  0  0  0  0  0  0  0  0
  135.9240  125.5410  123.6620 C   0  0  0  0  0  0  0  0  0  0  0  0
  135.7380  125.0630  122.3680 C   0  0  0  0  0  0  0  0  0  0  0  0
  135.7760  123.6930  122.1170 C   0  0  0  0  0  0  0  0  0  0  0  0
  136.0050  122.7960  123.1620 C   0  0  0  0  0  0  0  0  0  0  0  0
  132.1390  125.1050  125.7660 C   0  0  0  0  0  0  0  0  0  0  0  0
  131.5164  127.8465  128.8455 H   0  0  0  0  0  0  0  0  0  0  0  0
  130.8170  129.1161  127.7845 H   0  0  0  0  0  0  0  0  0  0  0  0
  130.1192  127.4609  127.7845 H   0  0  0  0  0  0  0  0  0  0  0  0
  131.3665  126.9629  123.0010 H   0  0  0  0  0  0  0  0  0  0  0  0
  132.0119  124.8311  121.8852 H   0  0  0  0  0  0  0  0  0  0  0  0
  132.7290  122.8722  123.2456 H   0  0  0  0  0  0  0  0  0  0  0  0
  132.1161  122.5457  126.7562 H   0  0  0  0  0  0  0  0  0  0  0  0
  132.9259  121.8269  125.2889 H   0  0  0  0  0  0  0  0  0  0  0  0
  134.6765  123.8085  126.3574 H   0  0  0  0  0  0  0  0  0  0  0  0
  134.1081  122.7554  127.7241 H   0  0  0  0  0  0  0  0  0  0  0  0
  135.5220  121.2520  127.0600 H   0  0  0  0  0  0  0  0  0  0  0  0
  134.0922  119.9309  125.9575 H   0  0  0  0  0  0  0  0  0  0  0  0
  133.8073  121.1765  124.6949 H   0  0  0  0  0  0  0  0  0  0  0  0
  135.3343  120.2306  124.6949 H   0  0  0  0  0  0  0  0  0  0  0  0
  137.0376  122.8357  126.3779 H   0  0  0  0  0  0  0  0  0  0  0  0
  137.0468  121.4639  125.1779 H   0  0  0  0  0  0  0  0  0  0  0  0
  136.3003  125.0316  125.7309 H   0  0  0  0  0  0  0  0  0  0  0  0
  135.8896  126.6228  123.8585 H   0  0  0  0  0  0  0  0  0  0  0  0
  135.5608  125.7679  121.5423 H   0  0  0  0  0  0  0  0  0  0  0  0
  135.6254  123.3176  121.0941 H   0  0  0  0  0  0  0  0  0  0  0  0
  136.0327  121.7153  122.9588 H   0  0  0  0  0  0  0  0  0  0  0  0
  132.1840  125.1865  126.8621 H   0  0  0  0  0  0  0  0  0  0  0  0
  1  2  1  0
  2  3  1  0
  3  4  2  0
  3  5  1  0
  5  6  1  0
  6  7  2  0
  7  8  1  0
  8  9  2  0
  9 10  1  0
 10 11  1  0
 11 12  1  0
 12 13  1  0
 12 14  1  0
 14 15  1  0
 15 16  2  0
 16 17  1  0
 17 18  2  0
 18 19  1  0
 19 20  2  0
  9 21  1  0
 21  5  2  0
 20 15  1  0
  1 22  1  0
  1 23  1  0
  1 24  1  0
  6 25  1  0
  7 26  1  0
  8 27  1  0
 10 28  1  0
 10 29  1  0
 11 30  1  0
 11 31  1  0
 12 32  1  1
 13 33  1  0
 13 34  1  0
 13 35  1  0
 14 36  1  0
 14 37  1  0
 16 38  1  0
 17 39  1  0
 18 40  1  0
 19 41  1  0
 20 42  1  0
 21 43  1  0
M  CHG  1  12   1
M  END
>  <meeko>  (10) 
{"is_sidechain": [false], "free_energy": -6.396, "intermolecular_energy": -9.815, "internal_energy": -1.723}

$$$$
seed-5301
     RDKit          3D

 43 44  0  0  0  0  0  0  0  0999 V2000
  135.3330  122.0480  127.5450 C   0  0  0  0  0  0  0  0  0  0  0  0
  135.1830  121.5990  126.1950 O   0  0  0  0  0  0  0  0  0  0  0  0
  136.1620  122.0330  125.3630 C   0  0  0  0  0  0  0  0  0  0  0  0
  137.3620  121.9380  125.5560 O   0  0  0  0  0  0  0  0  0  0  0  0
  135.5740  122.6820  124.1580 C   0  0  0  0  0  0  0  0  0  0  0  0
  136.3630  122.7700  123.0050 C   0  0  0  0  0  0  0  0  0  0  0  0
  135.8580  123.3670  121.8500 C   0  0  0  0  0  0  0  0  0  0  0  0
  134.5650  123.8900  121.8400 C   0  0  0  0  0  0  0  0  0  0  0  0
  133.7640  123.8280  122.9890 C   0  0  0  0  0  0  0  0  0  0  0  0
  132.3810  124.4370  122.9900 C   0  0  0  0  0  0  0  0  0  0  0  0
  132.4000  125.9740  122.9920 C   0  0  0  0  0  0  0  0  0  0  0  0
  131.6790  126.5540  124.1970 N   0  0  1  0  0  0  0  0  0  0  0  0
  130.2990  127.0560  123.8720 C   0  0  0  0  0  0  0  0  0  0  0  0
  131.6800  125.5930  125.3690 C   0  0  0  0  0  0  0  0  0  0  0  0
  131.0150  126.1610  126.5930 C   0  0  0  0  0  0  0  0  0  0  0  0
  131.4230  127.4020  127.1120 C   0  0  0  0  0  0  0  0  0  0  0  0
  130.7890  127.9420  128.2320 C   0  0  0  0  0  0  0  0  0  0  0  0
  129.7470  127.2510  128.8440 C   0  0  0  0  0  0  0  0  0  0  0  0
  129.3380  126.0170  128.3440 C   0  0  0  0  0  0  0  0  0  0  0  0
  129.9680  125.4720  127.2240 C   0  0  0  0  0  0  0  0  0  0  0  0
  134.2730  123.2100  124.1440 C   0  0  0  0  0  0  0  0  0  0  0  0
  135.0613  121.2348  128.2342 H   0  0  0  0  0  0  0  0  0  0  0  0
  136.3784  122.3426  127.7194 H   0  0  0  0  0  0  0  0  0  0  0  0
  134.6746  122.9118  127.7194 H   0  0  0  0  0  0  0  0  0  0  0  0
  137.3863  122.3663  123.0099 H   0  0  0  0  0  0  0  0  0  0  0  0
  136.4807  123.4255  120.9451 H   0  0  0  0  0  0  0  0  0  0  0  0
  134.1709  124.3544  120.9240 H   0  0  0  0  0  0  0  0  0  0  0  0
  131.8468  124.0945  122.0915 H   0  0  0  0  0  0  0  0  0  0  0  0
  131.8804  124.1135  123.9145 H   0  0  0  0  0  0  0  0  0  0  0  0
  133.4455  126.3156  123.0062 H   0  0  0  0  0  0  0  0  0  0  0  0
  131.8788  126.3199  122.0872 H   0  0  0  0  0  0  0  0  0  0  0  0
  132.2200  127.3670  124.5180 H   0  0  0  0  0  0  0  0  0  0  0  0
  129.7520  127.2550  124.8054 H   0  0  0  0  0  0  0  0  0  0  0  0
  130.3749  127.9841  123.2865 H   0  0  0  0  0  0  0  0  0  0  0  0
  129.7608  126.2960  123.2865 H   0  0  0  0  0  0  0  0  0  0  0  0
  131.1466  124.6777  125.0727 H   0  0  0  0  0  0  0  0  0  0  0  0
  132.7296  125.3898  125.6281 H   0  0  0  0  0  0  0  0  0  0  0  0
  132.2469  127.9509  126.6325 H   0  0  0  0  0  0  0  0  0  0  0  0
  131.1130  128.9144  128.6314 H   0  0  0  0  0  0  0  0  0  0  0  0
  129.2457  127.6803  129.7240 H   0  0  0  0  0  0  0  0  0  0  0  0
  128.5173  125.4712  128.8324 H   0  0  0  0  0  0  0  0  0  0  0  0
  129.6418  124.4967  126.8337 H   0  0  0  0  0  0  0  0  0  0  0  0
  133.6464  123.1393  125.0453 H   0  0  0  0  0  0  0  0  0  0  0  0
  1  2  1  0
  2  3  1  0
  3  4  2  0
  3  5  1  0
  5  6  1  0
  6  7  2  0
  7  8  1  0
  8  9  2  0
  9 10  1  0
 10 11  1  0
 11 12  1  0
 12 13  1  0
 12 14  1  0
 14 15  1  0
 15 16  2  0
 16 17  1  0
 17 18  2  0
 18 19  1  0
 19 20  2  0
  9 21  1  0
 21  5  2  0
 20 15  1  0
  1 22  1  0
  1 23  1  0
  1 24  1  0
  6 25  1  0
  7 26  1  0
  8 27  1  0
 10 28  1  0
 10 29  1  0
 11 30  1  0
 11 31  1  0
 12 32  1  1
 13 33  1  0
 13 34  1  0
 13 35  1  0
 14 36  1  0
 14 37  1  0
 16 38  1  0
 17 39  1  0
 18 40  1  0
 19 41  1  0
 20 42  1  0
 21 43  1  0
M  CHG  1  12   1
M  END
>  <meeko>  (11) 
{"is_sidechain": [false], "free_energy": -6.332, "intermolecular_energy": -10.908, "internal_energy": -0.54}

$$$$
seed-5301
     RDKit          3D

 43 44  0  0  0  0  0  0  0  0999 V2000
  128.2370  123.7050  128.1520 C   0  0  0  0  0  0  0  0  0  0  0  0
  129.2970  124.5900  127.7770 O   0  0  0  0  0  0  0  0  0  0  0  0
  130.2530  124.0050  127.0140 C   0  0  0  0  0  0  0  0  0  0  0  0
  130.7560  122.9110  127.2080 O   0  0  0  0  0  0  0  0  0  0  0  0
  130.6430  124.8990  125.8890 C   0  0  0  0  0  0  0  0  0  0  0  0
  130.0170  126.1460  125.7890 C   0  0  0  0  0  0  0  0  0  0  0  0
  130.3500  127.0200  124.7540 C   0  0  0  0  0  0  0  0  0  0  0  0
  131.3030  126.6520  123.8050 C   0  0  0  0  0  0  0  0  0  0  0  0
  131.9300  125.4010  123.8760 C   0  0  0  0  0  0  0  0  0  0  0  0
  132.9280  124.9850  122.8200 C   0  0  0  0  0  0  0  0  0  0  0  0
  134.2100  125.8310  122.8370 C   0  0  0  0  0  0  0  0  0  0  0  0
  135.4530  124.9940  122.5870 N   0  0  1  0  0  0  0  0  0  0  0  0
  136.3220  125.5430  121.4890 C   0  0  0  0  0  0  0  0  0  0  0  0
  136.2300  124.7460  123.8650 C   0  0  0  0  0  0  0  0  0  0  0  0
  135.6460  123.6390  124.7000 C   0  0  0  0  0  0  0  0  0  0  0  0
  135.5850  122.3280  124.1990 C   0  0  0  0  0  0  0  0  0  0  0  0
  135.0670  121.2960  124.9820 C   0  0  0  0  0  0  0  0  0  0  0  0
  134.6050  121.5610  126.2690 C   0  0  0  0  0  0  0  0  0  0  0  0
  134.6550  122.8590  126.7750 C   0  0  0  0  0  0  0  0  0  0  0  0
  135.1720  123.8940  125.9950 C   0  0  0  0  0  0  0  0  0  0  0  0
  131.6020  124.5320  124.9310 C   0  0  0  0  0  0  0  0  0  0  0  0
  128.1740  123.6524  129.2489 H   0  0  0  0  0  0  0  0  0  0  0  0
  127.2854  124.0806  127.7477 H   0  0  0  0  0  0  0  0  0  0  0  0
  128.4367  122.7017  127.7477 H   0  0  0  0  0  0  0  0  0  0  0  0
  129.2586  126.4388  126.5300 H   0  0  0  0  0  0  0  0  0  0  0  0
  129.8594  128.0022  124.6863 H   0  0  0  0  0  0  0  0  0  0  0  0
  131.5644  127.3487  122.9949 H   0  0  0  0  0  0  0  0  0  0  0  0
  133.2003  123.9330  122.9906 H   0  0  0  0  0  0  0  0  0  0  0  0
  132.4501  125.1327  121.8403 H   0  0  0  0  0  0  0  0  0  0  0  0
  134.1374  126.6001  122.0539 H   0  0  0  0  0  0  0  0  0  0  0  0
  134.3028  126.2837  123.8352 H   0  0  0  0  0  0  0  0  0  0  0  0
  135.1420  124.0640  122.2790 H   0  0  0  0  0  0  0  0  0  0  0  0
  137.1739  126.0812  121.9301 H   0  0  0  0  0  0  0  0  0  0  0  0
  136.6935  124.7153  120.8669 H   0  0  0  0  0  0  0  0  0  0  0  0
  135.7341  126.2340  120.8669 H   0  0  0  0  0  0  0  0  0  0  0  0
  137.2638  124.4784  123.6009 H   0  0  0  0  0  0  0  0  0  0  0  0
  136.1857  125.6686  124.4624 H   0  0  0  0  0  0  0  0  0  0  0  0
  135.9480  122.1138  123.1829 H   0  0  0  0  0  0  0  0  0  0  0  0
  135.0234  120.2720  124.5826 H   0  0  0  0  0  0  0  0  0  0  0  0
  134.2004  120.7455  126.8865 H   0  0  0  0  0  0  0  0  0  0  0  0
  134.2865  123.0675  127.7903 H   0  0  0  0  0  0  0  0  0  0  0  0
  135.2080  124.9167  126.3985 H   0  0  0  0  0  0  0  0  0  0  0  0
  132.1014  123.5549  125.0070 H   0  0  0  0  0  0  0  0  0  0  0  0
  1  2  1  0
  2  3  1  0
  3  4  2  0
  3  5  1  0
  5  6  1  0
  6  7  2  0
  7  8  1  0
  8  9  2  0
  9 10  1  0
 10 11  1  0
 11 12  1  0
 12 13  1  0
 12 14  1  0
 14 15  1  0
 15 16  2  0
 16 17  1  0
 17 18  2  0
 18 19  1  0
 19 20  2  0
  9 21  1  0
 21  5  2  0
 20 15  1  0
  1 22  1  0
  1 23  1  0
  1 24  1  0
  6 25  1  0
  7 26  1  0
  8 27  1  0
 10 28  1  0
 10 29  1  0
 11 30  1  0
 11 31  1  0
 12 32  1  6
 13 33  1  0
 13 34  1  0
 13 35  1  0
 14 36  1  0
 14 37  1  0
 16 38  1  0
 17 39  1  0
 18 40  1  0
 19 41  1  0
 20 42  1  0
 21 43  1  0
M  CHG  1  12   1
M  END
>  <meeko>  (12) 
{"is_sidechain": [false], "free_energy": -6.307, "intermolecular_energy": -10.145, "internal_energy": -1.268}

$$$$
seed-5301
     RDKit          3D

 43 44  0  0  0  0  0  0  0  0999 V2000
  132.3460  126.0270  123.2760 C   0  0  0  0  0  0  0  0  0  0  0  0
  133.1340  126.3350  124.4300 O   0  0  0  0  0  0  0  0  0  0  0  0
  132.4080  126.4660  125.5680 C   0  0  0  0  0  0  0  0  0  0  0  0
  132.1590  127.5120  126.1440 O   0  0  0  0  0  0  0  0  0  0  0  0
  131.9560  125.1340  126.0560 C   0  0  0  0  0  0  0  0  0  0  0  0
  130.7040  125.0470  126.6750 C   0  0  0  0  0  0  0  0  0  0  0  0
  130.2350  123.8220  127.1470 C   0  0  0  0  0  0  0  0  0  0  0  0
  131.0180  122.6740  127.0160 C   0  0  0  0  0  0  0  0  0  0  0  0
  132.2810  122.7420  126.4150 C   0  0  0  0  0  0  0  0  0  0  0  0
  133.1470  121.5070  126.3160 C   0  0  0  0  0  0  0  0  0  0  0  0
  134.4540  121.6220  127.1170 C   0  0  0  0  0  0  0  0  0  0  0  0
  135.6650  121.7960  126.2160 N   0  0  1  0  0  0  0  0  0  0  0  0
  136.8650  121.0210  126.6870 C   0  0  0  0  0  0  0  0  0  0  0  0
  135.3310  121.5120  124.7650 C   0  0  0  0  0  0  0  0  0  0  0  0
  135.5640  122.6960  123.8680 C   0  0  0  0  0  0  0  0  0  0  0  0
  135.2220  122.6350  122.5060 C   0  0  0  0  0  0  0  0  0  0  0  0
  135.4130  123.7420  121.6790 C   0  0  0  0  0  0  0  0  0  0  0  0
  135.9470  124.9180  122.2000 C   0  0  0  0  0  0  0  0  0  0  0  0
  136.2960  124.9900  123.5470 C   0  0  0  0  0  0  0  0  0  0  0  0
  136.1070  123.8850  124.3790 C   0  0  0  0  0  0  0  0  0  0  0  0
  132.7410  123.9770  125.9260 C   0  0  0  0  0  0  0  0  0  0  0  0
  131.3651  125.6436  123.5935 H   0  0  0  0  0  0  0  0  0  0  0  0
  132.2066  126.9368  122.6737 H   0  0  0  0  0  0  0  0  0  0  0  0
  132.8605  125.2638  122.6737 H   0  0  0  0  0  0  0  0  0  0  0  0
  130.0866  125.9501  126.7898 H   0  0  0  0  0  0  0  0  0  0  0  0
  129.2456  123.7600  127.6238 H   0  0  0  0  0  0  0  0  0  0  0  0
  130.6406  121.7098  127.3872 H   0  0  0  0  0  0  0  0  0  0  0  0
  132.5765  120.6477  126.6982 H   0  0  0  0  0  0  0  0  0  0  0  0
  133.4204  121.3817  125.2579 H   0  0  0  0  0  0  0  0  0  0  0  0
  134.3834  122.4911  127.7876 H   0  0  0  0  0  0  0  0  0  0  0  0
  134.5860  120.6889  127.6843 H   0  0  0  0  0  0  0  0  0  0  0  0
  135.9270  122.7890  126.2400 H   0  0  0  0  0  0  0  0  0  0  0  0
  136.8847  121.0083  127.7867 H   0  0  0  0  0  0  0  0  0  0  0  0
  136.8067  119.9895  126.3093 H   0  0  0  0  0  0  0  0  0  0  0  0
  137.7812  121.4985  126.3093 H   0  0  0  0  0  0  0  0  0  0  0  0
  135.9593  120.6789  124.4168 H   0  0  0  0  0  0  0  0  0  0  0  0
  134.2600  121.2659  124.7150 H   0  0  0  0  0  0  0  0  0  0  0  0
  134.8009  121.7081  122.0895 H   0  0  0  0  0  0  0  0  0  0  0  0
  135.1416  123.6860  120.6145 H   0  0  0  0  0  0  0  0  0  0  0  0
  136.0935  125.7912  121.5472 H   0  0  0  0  0  0  0  0  0  0  0  0
  136.7210  125.9187  123.9554 H   0  0  0  0  0  0  0  0  0  0  0  0
  136.3853  123.9466  125.4414 H   0  0  0  0  0  0  0  0  0  0  0  0
  133.7246  124.0376  125.4372 H   0  0  0  0  0  0  0  0  0  0  0  0
  1  2  1  0
  2  3  1  0
  3  4  2  0
  3  5  1  0
  5  6  1  0
  6  7  2  0
  7  8  1  0
  8  9  2  0
  9 10  1  0
 10 11  1  0
 11 12  1  0
 12 13  1  0
 12 14  1  0
 14 15  1  0
 15 16  2  0
 16 17  1  0
 17 18  2  0
 18 19  1  0
 19 20  2  0
  9 21  1  0
 21  5  2  0
 20 15  1  0
  1 22  1  0
  1 23  1  0
  1 24  1  0
  6 25  1  0
  7 26  1  0
  8 27  1  0
 10 28  1  0
 10 29  1  0
 11 30  1  0
 11 31  1  0
 12 32  1  6
 13 33  1  0
 13 34  1  0
 13 35  1  0
 14 36  1  0
 14 37  1  0
 16 38  1  0
 17 39  1  0
 18 40  1  0
 19 41  1  0
 20 42  1  0
 21 43  1  0
M  CHG  1  12   1
M  END
>  <meeko>  (13) 
{"is_sidechain": [false], "free_energy": -6.236, "intermolecular_energy": -10.126, "internal_energy": -1.187}

$$$$
seed-5301
     RDKit          3D

 43 44  0  0  0  0  0  0  0  0999 V2000
  136.8880  121.0810  126.5250 C   0  0  0  0  0  0  0  0  0  0  0  0
  135.7280  121.0950  125.6890 O   0  0  0  0  0  0  0  0  0  0  0  0
  135.4090  122.3270  125.2180 C   0  0  0  0  0  0  0  0  0  0  0  0
  136.1190  123.0360  124.5250 O   0  0  0  0  0  0  0  0  0  0  0  0
  134.0540  122.7300  125.6840 C   0  0  0  0  0  0  0  0  0  0  0  0
  133.2420  121.7550  126.2750 C   0  0  0  0  0  0  0  0  0  0  0  0
  131.9650  122.0840  126.7300 C   0  0  0  0  0  0  0  0  0  0  0  0
  131.4850  123.3860  126.5890 C   0  0  0  0  0  0  0  0  0  0  0  0
  132.2750  124.3740  125.9860 C   0  0  0  0  0  0  0  0  0  0  0  0
  131.7350  125.7720  125.7930 C   0  0  0  0  0  0  0  0  0  0  0  0
  130.2330  125.8850  126.1000 C   0  0  0  0  0  0  0  0  0  0  0  0
  129.7750  127.3310  126.1970 N   0  0  1  0  0  0  0  0  0  0  0  0
  130.0380  127.9430  127.5450 C   0  0  0  0  0  0  0  0  0  0  0  0
  130.3310  128.1730  125.0650 C   0  0  0  0  0  0  0  0  0  0  0  0
  129.3300  128.4150  123.9690 C   0  0  0  0  0  0  0  0  0  0  0  0
  129.3370  129.6250  123.2540 C   0  0  0  0  0  0  0  0  0  0  0  0
  128.4250  129.8410  122.2200 C   0  0  0  0  0  0  0  0  0  0  0  0
  127.4990  128.8540  121.8900 C   0  0  0  0  0  0  0  0  0  0  0  0
  127.4780  127.6530  122.5950 C   0  0  0  0  0  0  0  0  0  0  0  0
  128.3870  127.4330  123.6310 C   0  0  0  0  0  0  0  0  0  0  0  0
  133.5670  124.0400  125.5450 C   0  0  0  0  0  0  0  0  0  0  0  0
  136.5792  121.0847  127.5808 H   0  0  0  0  0  0  0  0  0  0  0  0
  137.4778  120.1757  126.3187 H   0  0  0  0  0  0  0  0  0  0  0  0
  137.4994  121.9718  126.3187 H   0  0  0  0  0  0  0  0  0  0  0  0
  133.6125  120.7247  126.3811 H   0  0  0  0  0  0  0  0  0  0  0  0
  131.3352  121.3149  127.2010 H   0  0  0  0  0  0  0  0  0  0  0  0
  130.4787  123.6392  126.9539 H   0  0  0  0  0  0  0  0  0  0  0  0
  132.2814  126.4539  126.4613 H   0  0  0  0  0  0  0  0  0  0  0  0
  131.8744  126.0346  124.7339 H   0  0  0  0  0  0  0  0  0  0  0  0
  129.6688  125.3876  125.2973 H   0  0  0  0  0  0  0  0  0  0  0  0
  130.0499  125.4063  127.0733 H   0  0  0  0  0  0  0  0  0  0  0  0
  128.7560  127.3410  126.0610 H   0  0  0  0  0  0  0  0  0  0  0  0
  129.7350  127.2380  128.3332 H   0  0  0  0  0  0  0  0  0  0  0  0
  131.1109  128.1647  127.6440 H   0  0  0  0  0  0  0  0  0  0  0  0
  129.4605  128.8740  127.6440 H   0  0  0  0  0  0  0  0  0  0  0  0
  130.6467  129.1446  125.4727 H   0  0  0  0  0  0  0  0  0  0  0  0
  131.1741  127.6198  124.6256 H   0  0  0  0  0  0  0  0  0  0  0  0
  130.0664  130.4072  123.5112 H   0  0  0  0  0  0  0  0  0  0  0  0
  128.4374  130.7909  121.6654 H   0  0  0  0  0  0  0  0  0  0  0  0
  126.7836  129.0233  121.0717 H   0  0  0  0  0  0  0  0  0  0  0  0
  126.7437  126.8764  122.3348 H   0  0  0  0  0  0  0  0  0  0  0  0
  128.3638  126.4835  124.1860 H   0  0  0  0  0  0  0  0  0  0  0  0
  134.2028  124.8118  125.0867 H   0  0  0  0  0  0  0  0  0  0  0  0
  1  2  1  0
  2  3  1  0
  3  4  2  0
  3  5  1  0
  5  6  1  0
  6  7  2  0
  7  8  1  0
  8  9  2  0
  9 10  1  0
 10 11  1  0
 11 12  1  0
 12 13  1  0
 12 14  1  0
 14 15  1  0
 15 16  2  0
 16 17  1  0
 17 18  2  0
 18 19  1  0
 19 20  2  0
  9 21  1  0
 21  5  2  0
 20 15  1  0
  1 22  1  0
  1 23  1  0
  1 24  1  0
  6 25  1  0
  7 26  1  0
  8 27  1  0
 10 28  1  0
 10 29  1  0
 11 30  1  0
 11 31  1  0
 12 32  1  6
 13 33  1  0
 13 34  1  0
 13 35  1  0
 14 36  1  0
 14 37  1  0
 16 38  1  0
 17 39  1  0
 18 40  1  0
 19 41  1  0
 20 42  1  0
 21 43  1  0
M  CHG  1  12   1
M  END
>  <meeko>  (14) 
{"is_sidechain": [false], "free_energy": -6.1, "intermolecular_energy": -10.694, "internal_energy": -0.427}

$$$$
seed-5301
     RDKit          3D

 43 44  0  0  0  0  0  0  0  0999 V2000
  131.2260  128.3560  128.3500 C   0  0  0  0  0  0  0  0  0  0  0  0
  131.4500  127.8970  127.0130 O   0  0  0  0  0  0  0  0  0  0  0  0
  130.5350  126.9900  126.5880 C   0  0  0  0  0  0  0  0  0  0  0  0
  129.3360  127.0240  126.8050 O   0  0  0  0  0  0  0  0  0  0  0  0
  131.1990  125.9000  125.8200 C   0  0  0  0  0  0  0  0  0  0  0  0
  131.3130  124.6430  126.4230 C   0  0  0  0  0  0  0  0  0  0  0  0
  131.9250  123.5890  125.7440 C   0  0  0  0  0  0  0  0  0  0  0  0
  132.4360  123.7850  124.4610 C   0  0  0  0  0  0  0  0  0  0  0  0
  132.3470  125.0400  123.8450 C   0  0  0  0  0  0  0  0  0  0  0  0
  132.9430  125.2630  122.4740 C   0  0  0  0  0  0  0  0  0  0  0  0
  134.1560  124.3630  122.1920 C   0  0  0  0  0  0  0  0  0  0  0  0
  135.2430  125.0900  121.4190 N   0  0  1  0  0  0  0  0  0  0  0  0
  136.1140  125.9500  122.2940 C   0  0  0  0  0  0  0  0  0  0  0  0
  136.0530  124.1400  120.5580 C   0  0  0  0  0  0  0  0  0  0  0  0
  135.3300  123.7220  119.3070 C   0  0  0  0  0  0  0  0  0  0  0  0
  135.4110  122.3960  118.8490 C   0  0  0  0  0  0  0  0  0  0  0  0
  134.7200  122.0010  117.7030 C   0  0  0  0  0  0  0  0  0  0  0  0
  133.9450  122.9230  117.0040 C   0  0  0  0  0  0  0  0  0  0  0  0
  133.8620  124.2420  117.4440 C   0  0  0  0  0  0  0  0  0  0  0  0
  134.5520  124.6420  118.5900 C   0  0  0  0  0  0  0  0  0  0  0  0
  131.7150  126.0930  124.5280 C   0  0  0  0  0  0  0  0  0  0  0  0
  131.5935  127.6029  129.0626 H   0  0  0  0  0  0  0  0  0  0  0  0
  131.7633  129.3028  128.5075 H   0  0  0  0  0  0  0  0  0  0  0  0
  130.1490  128.5150  128.5075 H   0  0  0  0  0  0  0  0  0  0  0  0
  130.9182  124.4848  127.4374 H   0  0  0  0  0  0  0  0  0  0  0  0
  132.0047  122.6012  126.2215 H   0  0  0  0  0  0  0  0  0  0  0  0
  132.9123  122.9482  123.9291 H   0  0  0  0  0  0  0  0  0  0  0  0
  132.1706  125.0568  121.7184 H   0  0  0  0  0  0  0  0  0  0  0  0
  133.2908  126.3058  122.4325 H   0  0  0  0  0  0  0  0  0  0  0  0
  134.5724  124.0193  123.1504 H   0  0  0  0  0  0  0  0  0  0  0  0
  133.8133  123.5172  121.5779 H   0  0  0  0  0  0  0  0  0  0  0  0
  134.7780  125.7220  120.7540 H   0  0  0  0  0  0  0  0  0  0  0  0
  135.8971  125.7358  123.3509 H   0  0  0  0  0  0  0  0  0  0  0  0
  137.1719  125.7323  122.0854 H   0  0  0  0  0  0  0  0  0  0  0  0
  135.9098  127.0106  122.0854 H   0  0  0  0  0  0  0  0  0  0  0  0
  136.9905  124.6390  120.2713 H   0  0  0  0  0  0  0  0  0  0  0  0
  136.2369  123.2323  121.1516 H   0  0  0  0  0  0  0  0  0  0  0  0
  136.0230  121.6648  119.3974 H   0  0  0  0  0  0  0  0  0  0  0  0
  134.7874  120.9608  117.3515 H   0  0  0  0  0  0  0  0  0  0  0  0
  133.3975  122.6092  116.1030 H   0  0  0  0  0  0  0  0  0  0  0  0
  133.2522  124.9693  116.8880 H   0  0  0  0  0  0  0  0  0  0  0  0
  134.4848  125.6852  118.9324 H   0  0  0  0  0  0  0  0  0  0  0  0
  131.6235  127.0777  124.0463 H   0  0  0  0  0  0  0  0  0  0  0  0
  1  2  1  0
  2  3  1  0
  3  4  2  0
  3  5  1  0
  5  6  1  0
  6  7  2  0
  7  8  1  0
  8  9  2  0
  9 10  1  0
 10 11  1  0
 11 12  1  0
 12 13  1  0
 12 14  1  0
 14 15  1  0
 15 16  2  0
 16 17  1  0
 17 18  2  0
 18 19  1  0
 19 20  2  0
  9 21  1  0
 21  5  2  0
 20 15  1  0
  1 22  1  0
  1 23  1  0
  1 24  1  0
  6 25  1  0
  7 26  1  0
  8 27  1  0
 10 28  1  0
 10 29  1  0
 11 30  1  0
 11 31  1  0
 12 32  1  6
 13 33  1  0
 13 34  1  0
 13 35  1  0
 14 36  1  0
 14 37  1  0
 16 38  1  0
 17 39  1  0
 18 40  1  0
 19 41  1  0
 20 42  1  0
 21 43  1  0
M  CHG  1  12   1
M  END
>  <meeko>  (15) 
{"is_sidechain": [false], "free_energy": -6.008, "intermolecular_energy": -10.467, "internal_energy": -0.524}

$$$$
seed-5301
     RDKit          3D

 43 44  0  0  0  0  0  0  0  0999 V2000
  135.3370  123.6540  122.1120 C   0  0  0  0  0  0  0  0  0  0  0  0
  136.1530  122.9330  123.0400 O   0  0  0  0  0  0  0  0  0  0  0  0
  136.0830  123.4060  124.3100 C   0  0  0  0  0  0  0  0  0  0  0  0
  136.8740  124.1700  124.8360 O   0  0  0  0  0  0  0  0  0  0  0  0
  134.8980  122.8400  125.0130 C   0  0  0  0  0  0  0  0  0  0  0  0
  134.9000  121.4730  125.3140 C   0  0  0  0  0  0  0  0  0  0  0  0
  133.8150  120.8960  125.9740 C   0  0  0  0  0  0  0  0  0  0  0  0
  132.7150  121.6770  126.3290 C   0  0  0  0  0  0  0  0  0  0  0  0
  132.6850  123.0440  126.0220 C   0  0  0  0  0  0  0  0  0  0  0  0
  131.4730  123.8780  126.3660 C   0  0  0  0  0  0  0  0  0  0  0  0
  131.7990  125.3700  126.5430 C   0  0  0  0  0  0  0  0  0  0  0  0
  130.7080  126.2660  125.9820 N   0  0  1  0  0  0  0  0  0  0  0  0
  130.0920  127.1650  127.0190 C   0  0  0  0  0  0  0  0  0  0  0  0
  131.1840  127.0350  124.7650 C   0  0  0  0  0  0  0  0  0  0  0  0
  130.0600  127.6910  124.0100 C   0  0  0  0  0  0  0  0  0  0  0  0
  128.9320  126.9460  123.6270 C   0  0  0  0  0  0  0  0  0  0  0  0
  127.8770  127.5590  122.9500 C   0  0  0  0  0  0  0  0  0  0  0  0
  127.9380  128.9170  122.6470 C   0  0  0  0  0  0  0  0  0  0  0  0
  129.0540  129.6650  123.0160 C   0  0  0  0  0  0  0  0  0  0  0  0
  130.1120  129.0560  123.6930 C   0  0  0  0  0  0  0  0  0  0  0  0
  133.7890  123.6220  125.3720 C   0  0  0  0  0  0  0  0  0  0  0  0
  134.6238  124.2842  122.6635 H   0  0  0  0  0  0  0  0  0  0  0  0
  135.9746  124.2891  121.4795 H   0  0  0  0  0  0  0  0  0  0  0  0
  134.7852  122.9430  121.4795 H   0  0  0  0  0  0  0  0  0  0  0  0
  135.7612  120.8509  125.0288 H   0  0  0  0  0  0  0  0  0  0  0  0
  133.8268  119.8228  126.2151 H   0  0  0  0  0  0  0  0  0  0  0  0
  131.8650  121.2165  126.8537 H   0  0  0  0  0  0  0  0  0  0  0  0
  130.7353  123.7743  125.5566 H   0  0  0  0  0  0  0  0  0  0  0  0
  131.0838  123.5107  127.3270 H   0  0  0  0  0  0  0  0  0  0  0  0
  131.9150  125.5824  127.6160 H   0  0  0  0  0  0  0  0  0  0  0  0
  132.7266  125.5809  125.9907 H   0  0  0  0  0  0  0  0  0  0  0  0
  129.9560  125.6570  125.6350 H   0  0  0  0  0  0  0  0  0  0  0  0
  130.3459  126.7944  128.0231 H   0  0  0  0  0  0  0  0  0  0  0  0
  130.4807  128.1867  126.8961 H   0  0  0  0  0  0  0  0  0  0  0  0
  128.9989  127.1713  126.8961 H   0  0  0  0  0  0  0  0  0  0  0  0
  131.8868  127.8142  125.0950 H   0  0  0  0  0  0  0  0  0  0  0  0
  131.6616  126.3141  124.0852 H   0  0  0  0  0  0  0  0  0  0  0  0
  128.8802  125.8727  123.8623 H   0  0  0  0  0  0  0  0  0  0  0  0
  126.9965  126.9692  122.6554 H   0  0  0  0  0  0  0  0  0  0  0  0
  127.1043  129.3995  122.1159 H   0  0  0  0  0  0  0  0  0  0  0  0
  129.1015  130.7369  122.7735 H   0  0  0  0  0  0  0  0  0  0  0  0
  130.9920  129.6505  123.9796 H   0  0  0  0  0  0  0  0  0  0  0  0
  133.7839  124.6978  125.1424 H   0  0  0  0  0  0  0  0  0  0  0  0
  1  2  1  0
  2  3  1  0
  3  4  2  0
  3  5  1  0
  5  6  1  0
  6  7  2  0
  7  8  1  0
  8  9  2  0
  9 10  1  0
 10 11  1  0
 11 12  1  0
 12 13  1  0
 12 14  1  0
 14 15  1  0
 15 16  2  0
 16 17  1  0
 17 18  2  0
 18 19  1  0
 19 20  2  0
  9 21  1  0
 21  5  2  0
 20 15  1  0
  1 22  1  0
  1 23  1  0
  1 24  1  0
  6 25  1  0
  7 26  1  0
  8 27  1  0
 10 28  1  0
 10 29  1  0
 11 30  1  0
 11 31  1  0
 12 32  1  6
 13 33  1  0
 13 34  1  0
 13 35  1  0
 14 36  1  0
 14 37  1  0
 16 38  1  0
 17 39  1  0
 18 40  1  0
 19 41  1  0
 20 42  1  0
 21 43  1  0
M  CHG  1  12   1
M  END
>  <meeko>  (16) 
{"is_sidechain": [false], "free_energy": -5.995, "intermolecular_energy": -10.483, "internal_energy": -0.491}

$$$$
seed-5301
     RDKit          3D

 43 44  0  0  0  0  0  0  0  0999 V2000
  127.0090  124.2720  129.8690 C   0  0  0  0  0  0  0  0  0  0  0  0
  127.9230  124.5460  128.8030 O   0  0  0  0  0  0  0  0  0  0  0  0
  127.8250  125.8060  128.3120 C   0  0  0  0  0  0  0  0  0  0  0  0
  126.8260  126.5060  128.3240 O   0  0  0  0  0  0  0  0  0  0  0  0
  129.1190  126.2370  127.7140 C   0  0  0  0  0  0  0  0  0  0  0  0
  129.3470  127.6080  127.5500 C   0  0  0  0  0  0  0  0  0  0  0  0
  130.5440  128.0610  126.9970 C   0  0  0  0  0  0  0  0  0  0  0  0
  131.5200  127.1490  126.5930 C   0  0  0  0  0  0  0  0  0  0  0  0
  131.3050  125.7710  126.7330 C   0  0  0  0  0  0  0  0  0  0  0  0
  132.3430  124.7840  126.2520 C   0  0  0  0  0  0  0  0  0  0  0  0
  133.1090  125.2710  125.0120 C   0  0  0  0  0  0  0  0  0  0  0  0
  132.8490  124.3970  123.7970 N   0  0  1  0  0  0  0  0  0  0  0  0
  132.0320  125.0870  122.7390 C   0  0  0  0  0  0  0  0  0  0  0  0
  134.1320  123.8110  123.2410 C   0  0  0  0  0  0  0  0  0  0  0  0
  134.8030  122.8600  124.1950 C   0  0  0  0  0  0  0  0  0  0  0  0
  136.1750  122.9820  124.4730 C   0  0  0  0  0  0  0  0  0  0  0  0
  136.7920  122.1170  125.3770 C   0  0  0  0  0  0  0  0  0  0  0  0
  136.0490  121.1240  126.0090 C   0  0  0  0  0  0  0  0  0  0  0  0
  134.6900  120.9880  125.7380 C   0  0  0  0  0  0  0  0  0  0  0  0
  134.0670  121.8510  124.8340 C   0  0  0  0  0  0  0  0  0  0  0  0
  130.1030  125.3220  127.3070 C   0  0  0  0  0  0  0  0  0  0  0  0
  127.5150  124.4237  130.8339 H   0  0  0  0  0  0  0  0  0  0  0  0
  126.1467  124.9512  129.7964 H   0  0  0  0  0  0  0  0  0  0  0  0
  126.6626  123.2305  129.7964 H   0  0  0  0  0  0  0  0  0  0  0  0
  128.5782  128.3316  127.8588 H   0  0  0  0  0  0  0  0  0  0  0  0
  130.7196  129.1404  126.8788 H   0  0  0  0  0  0  0  0  0  0  0  0
  132.4640  127.5139  126.1620 H   0  0  0  0  0  0  0  0  0  0  0  0
  133.0648  124.6115  127.0640 H   0  0  0  0  0  0  0  0  0  0  0  0
  131.8131  123.8624  125.9692 H   0  0  0  0  0  0  0  0  0  0  0  0
  132.7940  126.2996  124.7824 H   0  0  0  0  0  0  0  0  0  0  0  0
  134.1843  125.2228  125.2388 H   0  0  0  0  0  0  0  0  0  0  0  0
  132.3000  123.5870  124.1120 H   0  0  0  0  0  0  0  0  0  0  0  0
  131.2756  125.7258  123.2184 H   0  0  0  0  0  0  0  0  0  0  0  0
  132.6910  125.7060  122.1125 H   0  0  0  0  0  0  0  0  0  0  0  0
  131.5320  124.3337  122.1125 H   0  0  0  0  0  0  0  0  0  0  0  0
  133.8972  123.2696  122.3127 H   0  0  0  0  0  0  0  0  0  0  0  0
  134.8264  124.6455  123.0637 H   0  0  0  0  0  0  0  0  0  0  0  0
  136.7662  123.7644  123.9747 H   0  0  0  0  0  0  0  0  0  0  0  0
  137.8662  122.2197  125.5905 H   0  0  0  0  0  0  0  0  0  0  0  0
  136.5365  120.4452  126.7242 H   0  0  0  0  0  0  0  0  0  0  0  0
  134.1065  120.1999  126.2365 H   0  0  0  0  0  0  0  0  0  0  0  0
  132.9935  121.7390  124.6218 H   0  0  0  0  0  0  0  0  0  0  0  0
  129.9317  124.2434  127.4386 H   0  0  0  0  0  0  0  0  0  0  0  0
  1  2  1  0
  2  3  1  0
  3  4  2  0
  3  5  1  0
  5  6  1  0
  6  7  2  0
  7  8  1  0
  8  9  2  0
  9 10  1  0
 10 11  1  0
 11 12  1  0
 12 13  1  0
 12 14  1  0
 14 15  1  0
 15 16  2  0
 16 17  1  0
 17 18  2  0
 18 19  1  0
 19 20  2  0
  9 21  1  0
 21  5  2  0
 20 15  1  0
  1 22  1  0
  1 23  1  0
  1 24  1  0
  6 25  1  0
  7 26  1  0
  8 27  1  0
 10 28  1  0
 10 29  1  0
 11 30  1  0
 11 31  1  0
 12 32  1  1
 13 33  1  0
 13 34  1  0
 13 35  1  0
 14 36  1  0
 14 37  1  0
 16 38  1  0
 17 39  1  0
 18 40  1  0
 19 41  1  0
 20 42  1  0
 21 43  1  0
M  CHG  1  12   1
M  END
>  <meeko>  (17) 
{"is_sidechain": [false], "free_energy": -5.958, "intermolecular_energy": -10.279, "internal_energy": -0.642}

$$$$
seed-5301
     RDKit          3D

 43 44  0  0  0  0  0  0  0  0999 V2000
  132.0550  128.9110  128.9670 C   0  0  0  0  0  0  0  0  0  0  0  0
  130.8670  128.1300  129.1240 O   0  0  0  0  0  0  0  0  0  0  0  0
  130.1990  127.9120  127.9640 C   0  0  0  0  0  0  0  0  0  0  0  0
  129.8550  128.7640  127.1620 O   0  0  0  0  0  0  0  0  0  0  0  0
  129.9070  126.4610  127.7940 C   0  0  0  0  0  0  0  0  0  0  0  0
  128.7890  125.9320  128.4490 C   0  0  0  0  0  0  0  0  0  0  0  0
  128.4720  124.5800  128.3200 C   0  0  0  0  0  0  0  0  0  0  0  0
  129.2750  123.7430  127.5440 C   0  0  0  0  0  0  0  0  0  0  0  0
  130.4080  124.2490  126.8940 C   0  0  0  0  0  0  0  0  0  0  0  0
  131.3020  123.3310  126.0930 C   0  0  0  0  0  0  0  0  0  0  0  0
  132.5820  124.0210  125.5950 C   0  0  0  0  0  0  0  0  0  0  0  0
  132.5280  124.3240  124.1070 N   0  0  1  0  0  0  0  0  0  0  0  0
  132.6240  125.7940  123.8020 C   0  0  0  0  0  0  0  0  0  0  0  0
  133.5440  123.5080  123.3310 C   0  0  0  0  0  0  0  0  0  0  0  0
  134.5580  122.8380  124.2170 C   0  0  0  0  0  0  0  0  0  0  0  0
  135.7620  123.4880  124.5370 C   0  0  0  0  0  0  0  0  0  0  0  0
  136.6920  122.8780  125.3800 C   0  0  0  0  0  0  0  0  0  0  0  0
  136.4310  121.6170  125.9090 C   0  0  0  0  0  0  0  0  0  0  0  0
  135.2430  120.9590  125.5940 C   0  0  0  0  0  0  0  0  0  0  0  0
  134.3100  121.5650  124.7510 C   0  0  0  0  0  0  0  0  0  0  0  0
  130.7120  125.6150  127.0150 C   0  0  0  0  0  0  0  0  0  0  0  0
  132.4546  129.1737  129.9576 H   0  0  0  0  0  0  0  0  0  0  0  0
  132.8054  128.3294  128.4113 H   0  0  0  0  0  0  0  0  0  0  0  0
  131.8186  129.8304  128.4113 H   0  0  0  0  0  0  0  0  0  0  0  0
  128.1574  126.5857  129.0685 H   0  0  0  0  0  0  0  0  0  0  0  0
  127.5872  124.1725  128.8310 H   0  0  0  0  0  0  0  0  0  0  0  0
  129.0165  122.6787  127.4421 H   0  0  0  0  0  0  0  0  0  0  0  0
  131.5876  122.4790  126.7274 H   0  0  0  0  0  0  0  0  0  0  0  0
  130.7348  123.0118  125.2063 H   0  0  0  0  0  0  0  0  0  0  0  0
  132.7124  124.9650  126.1444 H   0  0  0  0  0  0  0  0  0  0  0  0
  133.4251  123.3365  125.7702 H   0  0  0  0  0  0  0  0  0  0  0  0
  131.6130  124.0100  123.7610 H   0  0  0  0  0  0  0  0  0  0  0  0
  132.6611  126.3621  124.7432 H   0  0  0  0  0  0  0  0  0  0  0  0
  133.5368  125.9889  123.2199 H   0  0  0  0  0  0  0  0  0  0  0  0
  131.7443  126.1059  123.2199 H   0  0  0  0  0  0  0  0  0  0  0  0
  133.0101  122.7335  122.7609 H   0  0  0  0  0  0  0  0  0  0  0  0
  134.0885  124.2002  122.6718 H   0  0  0  0  0  0  0  0  0  0  0  0
  135.9728  124.4840  124.1204 H   0  0  0  0  0  0  0  0  0  0  0  0
  137.6317  123.3938  125.6266 H   0  0  0  0  0  0  0  0  0  0  0  0
  137.1632  121.1391  126.5765 H   0  0  0  0  0  0  0  0  0  0  0  0
  135.0406  119.9611  126.0103 H   0  0  0  0  0  0  0  0  0  0  0  0
  133.3748  121.0411  124.5040 H   0  0  0  0  0  0  0  0  0  0  0  0
  131.5895  126.0258  126.4942 H   0  0  0  0  0  0  0  0  0  0  0  0
  1  2  1  0
  2  3  1  0
  3  4  2  0
  3  5  1  0
  5  6  1  0
  6  7  2  0
  7  8  1  0
  8  9  2  0
  9 10  1  0
 10 11  1  0
 11 12  1  0
 12 13  1  0
 12 14  1  0
 14 15  1  0
 15 16  2  0
 16 17  1  0
 17 18  2  0
 18 19  1  0
 19 20  2  0
  9 21  1  0
 21  5  2  0
 20 15  1  0
  1 22  1  0
  1 23  1  0
  1 24  1  0
  6 25  1  0
  7 26  1  0
  8 27  1  0
 10 28  1  0
 10 29  1  0
 11 30  1  0
 11 31  1  0
 12 32  1  6
 13 33  1  0
 13 34  1  0
 13 35  1  0
 14 36  1  0
 14 37  1  0
 16 38  1  0
 17 39  1  0
 18 40  1  0
 19 41  1  0
 20 42  1  0
 21 43  1  0
M  CHG  1  12   1
M  END
>  <meeko>  (18) 
{"is_sidechain": [false], "free_energy": -5.909, "intermolecular_energy": -10.604, "internal_energy": -0.249}

$$$$
seed-5301
     RDKit          3D

 43 44  0  0  0  0  0  0  0  0999 V2000
  129.1940  128.7150  126.6820 C   0  0  0  0  0  0  0  0  0  0  0  0
  130.4440  128.0610  126.4440 O   0  0  0  0  0  0  0  0  0  0  0  0
  130.4550  127.2990  125.3230 C   0  0  0  0  0  0  0  0  0  0  0  0
  130.2520  127.6900  124.1860 O   0  0  0  0  0  0  0  0  0  0  0  0
  130.7330  125.8750  125.6620 C   0  0  0  0  0  0  0  0  0  0  0  0
  130.1320  125.3400  126.8070 C   0  0  0  0  0  0  0  0  0  0  0  0
  130.3590  124.0120  127.1660 C   0  0  0  0  0  0  0  0  0  0  0  0
  131.1960  123.2100  126.3900 C   0  0  0  0  0  0  0  0  0  0  0  0
  131.8210  123.7300  125.2490 C   0  0  0  0  0  0  0  0  0  0  0  0
  132.7650  122.8730  124.4360 C   0  0  0  0  0  0  0  0  0  0  0  0
  134.1910  122.8400  125.0080 C   0  0  0  0  0  0  0  0  0  0  0  0
  135.0600  123.9510  124.4420 N   0  0  1  0  0  0  0  0  0  0  0  0
  135.9390  124.5970  125.4780 C   0  0  0  0  0  0  0  0  0  0  0  0
  135.8460  123.4880  123.2310 C   0  0  0  0  0  0  0  0  0  0  0  0
  135.3270  124.0630  121.9410 C   0  0  0  0  0  0  0  0  0  0  0  0
  134.4980  125.1980  121.9520 C   0  0  0  0  0  0  0  0  0  0  0  0
  134.0370  125.7470  120.7550 C   0  0  0  0  0  0  0  0  0  0  0  0
  134.3970  125.1720  119.5400 C   0  0  0  0  0  0  0  0  0  0  0  0
  135.2140  124.0440  119.5150 C   0  0  0  0  0  0  0  0  0  0  0  0
  135.6770  123.4900  120.7100 C   0  0  0  0  0  0  0  0  0  0  0  0
  131.5750  125.0640  124.8840 C   0  0  0  0  0  0  0  0  0  0  0  0
  129.0265  128.8026  127.7656 H   0  0  0  0  0  0  0  0  0  0  0  0
  129.2136  129.7184  126.2317 H   0  0  0  0  0  0  0  0  0  0  0  0
  128.3808  128.1268  126.2317 H   0  0  0  0  0  0  0  0  0  0  0  0
  129.4773  125.9703  127.4268 H   0  0  0  0  0  0  0  0  0  0  0  0
  129.8771  123.5958  128.0630 H   0  0  0  0  0  0  0  0  0  0  0  0
  131.3666  122.1616  126.6760 H   0  0  0  0  0  0  0  0  0  0  0  0
  132.3731  121.8455  124.4124 H   0  0  0  0  0  0  0  0  0  0  0  0
  132.8246  123.3134  123.4298 H   0  0  0  0  0  0  0  0  0  0  0  0
  134.1375  122.9534  126.1008 H   0  0  0  0  0  0  0  0  0  0  0  0
  134.6459  121.8783  124.7283 H   0  0  0  0  0  0  0  0  0  0  0  0
  134.4330  124.6840  124.0890 H   0  0  0  0  0  0  0  0  0  0  0  0
  135.5777  124.3315  126.4825 H   0  0  0  0  0  0  0  0  0  0  0  0
  136.9729  124.2422  125.3545 H   0  0  0  0  0  0  0  0  0  0  0  0
  135.9091  125.6896  125.3545 H   0  0  0  0  0  0  0  0  0  0  0  0
  136.8950  123.7949  123.3551 H   0  0  0  0  0  0  0  0  0  0  0  0
  135.7438  122.3945  123.1696 H   0  0  0  0  0  0  0  0  0  0  0  0
  134.2110  125.6561  122.9100 H   0  0  0  0  0  0  0  0  0  0  0  0
  133.3883  126.6352  120.7717 H   0  0  0  0  0  0  0  0  0  0  0  0
  134.0357  125.6091  118.5974 H   0  0  0  0  0  0  0  0  0  0  0  0
  135.4945  123.5895  118.5533 H   0  0  0  0  0  0  0  0  0  0  0  0
  136.3205  122.5982  120.6857 H   0  0  0  0  0  0  0  0  0  0  0  0
  132.0464  125.4773  123.9801 H   0  0  0  0  0  0  0  0  0  0  0  0
  1  2  1  0
  2  3  1  0
  3  4  2  0
  3  5  1  0
  5  6  1  0
  6  7  2  0
  7  8  1  0
  8  9  2  0
  9 10  1  0
 10 11  1  0
 11 12  1  0
 12 13  1  0
 12 14  1  0
 14 15  1  0
 15 16  2  0
 16 17  1  0
 17 18  2  0
 18 19  1  0
 19 20  2  0
  9 21  1  0
 21  5  2  0
 20 15  1  0
  1 22  1  0
  1 23  1  0
  1 24  1  0
  6 25  1  0
  7 26  1  0
  8 27  1  0
 10 28  1  0
 10 29  1  0
 11 30  1  0
 11 31  1  0
 12 32  1  6
 13 33  1  0
 13 34  1  0
 13 35  1  0
 14 36  1  0
 14 37  1  0
 16 38  1  0
 17 39  1  0
 18 40  1  0
 19 41  1  0
 20 42  1  0
 21 43  1  0
M  CHG  1  12   1
M  END
>  <meeko>  (19) 
{"is_sidechain": [false], "free_energy": -5.903, "intermolecular_energy": -10.006, "internal_energy": -0.838}

$$$$
seed-5301
     RDKit          3D

 43 44  0  0  0  0  0  0  0  0999 V2000
  135.6720  123.3950  120.3360 C   0  0  0  0  0  0  0  0  0  0  0  0
  135.5880  122.7070  121.5880 O   0  0  0  0  0  0  0  0  0  0  0  0
  135.6690  123.5250  122.6660 C   0  0  0  0  0  0  0  0  0  0  0  0
  136.1830  124.6300  122.6920 O   0  0  0  0  0  0  0  0  0  0  0  0
  135.0560  122.8780  123.8600 C   0  0  0  0  0  0  0  0  0  0  0  0
  135.6440  121.7070  124.3510 C   0  0  0  0  0  0  0  0  0  0  0  0
  135.1080  121.0650  125.4670 C   0  0  0  0  0  0  0  0  0  0  0  0
  133.9750  121.5810  126.0950 C   0  0  0  0  0  0  0  0  0  0  0  0
  133.3600  122.7430  125.6100 C   0  0  0  0  0  0  0  0  0  0  0  0
  132.1050  123.2740  126.2640 C   0  0  0  0  0  0  0  0  0  0  0  0
  131.1170  123.8880  125.2590 C   0  0  0  0  0  0  0  0  0  0  0  0
  131.2360  125.4010  125.1890 N   0  0  1  0  0  0  0  0  0  0  0  0
  131.5370  125.9050  123.8040 C   0  0  0  0  0  0  0  0  0  0  0  0
  130.0320  126.0880  125.8020 C   0  0  0  0  0  0  0  0  0  0  0  0
  130.3700  126.8640  127.0460 C   0  0  0  0  0  0  0  0  0  0  0  0
  129.6540  126.6470  128.2350 C   0  0  0  0  0  0  0  0  0  0  0  0
  129.9830  127.3470  129.3960 C   0  0  0  0  0  0  0  0  0  0  0  0
  131.0260  128.2690  129.3820 C   0  0  0  0  0  0  0  0  0  0  0  0
  131.7400  128.4980  128.2070 C   0  0  0  0  0  0  0  0  0  0  0  0
  131.4140  127.8010  127.0430 C   0  0  0  0  0  0  0  0  0  0  0  0
  133.9150  123.3940  124.4950 C   0  0  0  0  0  0  0  0  0  0  0  0
  135.8035  124.4719  120.5175 H   0  0  0  0  0  0  0  0  0  0  0  0
  136.5301  123.0121  119.7641 H   0  0  0  0  0  0  0  0  0  0  0  0
  134.7470  123.2298  119.7641 H   0  0  0  0  0  0  0  0  0  0  0  0
  136.5330  121.2910  123.8545 H   0  0  0  0  0  0  0  0  0  0  0  0
  135.5801  120.1494  125.8527 H   0  0  0  0  0  0  0  0  0  0  0  0
  133.5608  121.0720  126.9778 H   0  0  0  0  0  0  0  0  0  0  0  0
  131.6043  122.4452  126.7859 H   0  0  0  0  0  0  0  0  0  0  0  0
  132.4081  124.0727  126.9570 H   0  0  0  0  0  0  0  0  0  0  0  0
  131.3202  123.4701  124.2620 H   0  0  0  0  0  0  0  0  0  0  0  0
  130.0983  123.6444  125.5950 H   0  0  0  0  0  0  0  0  0  0  0  0
  132.0300  125.6760  125.7820 H   0  0  0  0  0  0  0  0  0  0  0  0
  132.1000  126.8476  123.8711 H   0  0  0  0  0  0  0  0  0  0  0  0
  132.1367  125.1574  123.2640 H   0  0  0  0  0  0  0  0  0  0  0  0
  130.5945  126.0785  123.2640 H   0  0  0  0  0  0  0  0  0  0  0  0
  129.6083  126.7812  125.0604 H   0  0  0  0  0  0  0  0  0  0  0  0
  129.3148  125.3042  126.0870 H   0  0  0  0  0  0  0  0  0  0  0  0
  128.8284  125.9203  128.2507 H   0  0  0  0  0  0  0  0  0  0  0  0
  129.4179  127.1703  130.3231 H   0  0  0  0  0  0  0  0  0  0  0  0
  131.2869  128.8174  130.2992 H   0  0  0  0  0  0  0  0  0  0  0  0
  132.5617  129.2293  128.1973 H   0  0  0  0  0  0  0  0  0  0  0  0
  131.9789  127.9873  126.1177 H   0  0  0  0  0  0  0  0  0  0  0  0
  133.4511  124.3166  124.1161 H   0  0  0  0  0  0  0  0  0  0  0  0
  1  2  1  0
  2  3  1  0
  3  4  2  0
  3  5  1  0
  5  6  1  0
  6  7  2  0
  7  8  1  0
  8  9  2  0
  9 10  1  0
 10 11  1  0
 11 12  1  0
 12 13  1  0
 12 14  1  0
 14 15  1  0
 15 16  2  0
 16 17  1  0
 17 18  2  0
 18 19  1  0
 19 20  2  0
  9 21  1  0
 21  5  2  0
 20 15  1  0
  1 22  1  0
  1 23  1  0
  1 24  1  0
  6 25  1  0
  7 26  1  0
  8 27  1  0
 10 28  1  0
 10 29  1  0
 11 30  1  0
 11 31  1  0
 12 32  1  1
 13 33  1  0
 13 34  1  0
 13 35  1  0
 14 36  1  0
 14 37  1  0
 16 38  1  0
 17 39  1  0
 18 40  1  0
 19 41  1  0
 20 42  1  0
 21 43  1  0
M  CHG  1  12   1
M  END
>  <meeko>  (20) 
{"is_sidechain": [false], "free_energy": -5.894, "intermolecular_energy": -10.325, "internal_energy": -0.506}

$$$$
