seed-5303
     RDKit          3D

 43 44  0  0  0  0  0  0  0  0999 V2000
  134.5350  124.8360  118.8220 C   0  0  0  0  0  0  0  0  0  0  0  0
  134.5570  124.6970  120.2460 O   0  0  0  0  0  0  0  0  0  0  0  0
  135.3150  123.6590  120.6810 C   0  0  0  0  0  0  0  0  0  0  0  0
  135.6400  122.6830  120.0260 O   0  0  0  0  0  0  0  0  0  0  0  0
  135.6940  123.8510  122.1080 C   0  0  0  0  0  0  0  0  0  0  0  0
  136.0490  125.1380  122.5290 C   0  0  0  0  0  0  0  0  0  0  0  0
  136.4100  125.3700  123.8560 C   0  0  0  0  0  0  0  0  0  0  0  0
  136.4300  124.3170  124.7710 C   0  0  0  0  0  0  0  0  0  0  0  0
  136.0940  123.0180  124.3670 C   0  0  0  0  0  0  0  0  0  0  0  0
  136.1610  121.8710  125.3490 C   0  0  0  0  0  0  0  0  0  0  0  0
  135.2290  122.0560  126.5560 C   0  0  0  0  0  0  0  0  0  0  0  0
  133.7660  122.0970  126.1500 N   0  0  1  0  0  0  0  0  0  0  0  0
  132.9570  120.9800  126.7500 C   0  0  0  0  0  0  0  0  0  0  0  0
  133.1480  123.4570  126.4100 C   0  0  0  0  0  0  0  0  0  0  0  0
  132.8020  124.1940  125.1450 C   0  0  0  0  0  0  0  0  0  0  0  0
  132.9250  125.5930  125.0810 C   0  0  0  0  0  0  0  0  0  0  0  0
  132.6290  126.2750  123.9010 C   0  0  0  0  0  0  0  0  0  0  0  0
  132.2080  125.5710  122.7760 C   0  0  0  0  0  0  0  0  0  0  0  0
  132.0760  124.1850  122.8280 C   0  0  0  0  0  0  0  0  0  0  0  0
  132.3700  123.4980  124.0060 C   0  0  0  0  0  0  0  0  0  0  0  0
  135.7150  122.7940  123.0320 C   0  0  0  0  0  0  0  0  0  0  0  0
  134.3680  125.8910  118.5591 H   0  0  0  0  0  0  0  0  0  0  0  0
  135.4971  124.5024  118.4061 H   0  0  0  0  0  0  0  0  0  0  0  0
  133.7229  124.2215  118.4061 H   0  0  0  0  0  0  0  0  0  0  0  0
  136.0432  125.9703  121.8098 H   0  0  0  0  0  0  0  0  0  0  0  0
  136.6796  126.3854  124.1819 H   0  0  0  0  0  0  0  0  0  0  0  0
  136.7115  124.5079  125.8171 H   0  0  0  0  0  0  0  0  0  0  0  0
  135.8774  120.9456  124.8263 H   0  0  0  0  0  0  0  0  0  0  0  0
  137.1908  121.8279  125.7333 H   0  0  0  0  0  0  0  0  0  0  0  0
  135.3801  121.2178  127.2521 H   0  0  0  0  0  0  0  0  0  0  0  0
  135.4755  123.0182  127.0287 H   0  0  0  0  0  0  0  0  0  0  0  0
  133.7250  121.9760  125.1300 H   0  0  0  0  0  0  0  0  0  0  0  0
  133.0025  121.0428  127.8473 H   0  0  0  0  0  0  0  0  0  0  0  0
  131.9110  121.0670  126.4208 H   0  0  0  0  0  0  0  0  0  0  0  0
  133.3658  120.0133  126.4208 H   0  0  0  0  0  0  0  0  0  0  0  0
  132.2288  123.3182  126.9980 H   0  0  0  0  0  0  0  0  0  0  0  0
  133.8924  124.0601  126.9505 H   0  0  0  0  0  0  0  0  0  0  0  0
  133.2569  126.1534  125.9674 H   0  0  0  0  0  0  0  0  0  0  0  0
  132.7282  127.3697  123.8591 H   0  0  0  0  0  0  0  0  0  0  0  0
  131.9792  126.1099  121.8447 H   0  0  0  0  0  0  0  0  0  0  0  0
  131.7395  123.6316  121.9389 H   0  0  0  0  0  0  0  0  0  0  0  0
  132.2624  122.4039  124.0421 H   0  0  0  0  0  0  0  0  0  0  0  0
  135.4323  121.7814  122.7083 H   0  0  0  0  0  0  0  0  0  0  0  0
  1  2  1  0
  2  3  1  0
  3  4  2  0
  3  5  1  0
  5  6  1  0
  6  7  2  0
  7  8  1  0
  8  9  2  0
  9 10  1  0
 10 11  1  0
 11 12  1  0
 12 13  1  0
 12 14  1  0
 14 15  1  0
 15 16  2  0
 16 17  1  0
 17 18  2  0
 18 19  1  0
 19 20  2  0
  9 21  1  0
 21  5  2  0
 20 15  1  0
  1 22  1  0
  1 23  1  0
  1 24  1  0
  6 25  1  0
  7 26  1  0
  8 27  1  0
 10 28  1  0
 10 29  1  0
 11 30  1  0
 11 31  1  0
 12 32  1  6
 13 33  1  0
 13 34  1  0
 13 35  1  0
 14 36  1  0
 14 37  1  0
 16 38  1  0
 17 39  1  0
 18 40  1  0
 19 41  1  0
 20 42  1  0
 21 43  1  0
M  CHG  1  12   1
M  END
>  <meeko>  (1) 
{"is_sidechain": [false], "free_energy": -7.318, "intermolecular_energy": -10.312, "internal_energy": -2.529}

$$$$
seed-5303
     RDKit          3D

 43 44  0  0  0  0  0  0  0  0999 V2000
  135.0380  122.3970  115.7900 C   0  0  0  0  0  0  0  0  0  0  0  0
  134.5830  122.4460  117.1460 O   0  0  0  0  0  0  0  0  0  0  0  0
  134.2100  123.6850  117.5520 C   0  0  0  0  0  0  0  0  0  0  0  0
  133.5010  124.4600  116.9320 O   0  0  0  0  0  0  0  0  0  0  0  0
  134.8090  124.0040  118.8770 C   0  0  0  0  0  0  0  0  0  0  0  0
  135.7570  123.1180  119.4030 C   0  0  0  0  0  0  0  0  0  0  0  0
  136.3490  123.3730  120.6400 C   0  0  0  0  0  0  0  0  0  0  0  0
  135.9920  124.5090  121.3670 C   0  0  0  0  0  0  0  0  0  0  0  0
  135.0330  125.4000  120.8670 C   0  0  0  0  0  0  0  0  0  0  0  0
  134.6130  126.6050  121.6770 C   0  0  0  0  0  0  0  0  0  0  0  0
  133.8260  126.2340  122.9440 C   0  0  0  0  0  0  0  0  0  0  0  0
  134.7320  125.7220  124.0520 N   0  0  1  0  0  0  0  0  0  0  0  0
  135.6380  126.7840  124.6100 C   0  0  0  0  0  0  0  0  0  0  0  0
  133.9460  125.0090  125.1350 C   0  0  0  0  0  0  0  0  0  0  0  0
  134.4540  123.6200  125.4100 C   0  0  0  0  0  0  0  0  0  0  0  0
  134.7840  122.7610  124.3480 C   0  0  0  0  0  0  0  0  0  0  0  0
  135.2800  121.4820  124.6020 C   0  0  0  0  0  0  0  0  0  0  0  0
  135.4500  121.0480  125.9140 C   0  0  0  0  0  0  0  0  0  0  0  0
  135.1210  121.8880  126.9760 C   0  0  0  0  0  0  0  0  0  0  0  0
  134.6240  123.1680  126.7270 C   0  0  0  0  0  0  0  0  0  0  0  0
  134.4530  125.1460  119.6120 C   0  0  0  0  0  0  0  0  0  0  0  0
  136.1316  122.2792  115.7742 H   0  0  0  0  0  0  0  0  0  0  0  0
  134.5699  121.5441  115.2768 H   0  0  0  0  0  0  0  0  0  0  0  0
  134.7622  123.3300  115.2768 H   0  0  0  0  0  0  0  0  0  0  0  0
  136.0363  122.2165  118.8380 H   0  0  0  0  0  0  0  0  0  0  0  0
  137.0991  122.6768  121.0433 H   0  0  0  0  0  0  0  0  0  0  0  0
  136.4667  124.7066  122.3394 H   0  0  0  0  0  0  0  0  0  0  0  0
  135.5156  127.1587  121.9749 H   0  0  0  0  0  0  0  0  0  0  0  0
  133.9488  127.2113  121.0435 H   0  0  0  0  0  0  0  0  0  0  0  0
  133.2942  127.1267  123.3050 H   0  0  0  0  0  0  0  0  0  0  0  0
  133.1237  125.4289  122.6822 H   0  0  0  0  0  0  0  0  0  0  0  0
  135.3400  125.0000  123.6440 H   0  0  0  0  0  0  0  0  0  0  0  0
  135.6091  126.7502  125.7091 H   0  0  0  0  0  0  0  0  0  0  0  0
  136.6672  126.6065  124.2646 H   0  0  0  0  0  0  0  0  0  0  0  0
  135.3006  127.7724  124.2646 H   0  0  0  0  0  0  0  0  0  0  0  0
  134.0132  125.5971  126.0622 H   0  0  0  0  0  0  0  0  0  0  0  0
  132.9081  124.9167  124.7826 H   0  0  0  0  0  0  0  0  0  0  0  0
  134.6504  123.0992  123.3098 H   0  0  0  0  0  0  0  0  0  0  0  0
  135.5370  120.8160  123.7651 H   0  0  0  0  0  0  0  0  0  0  0  0
  135.8446  120.0406  126.1125 H   0  0  0  0  0  0  0  0  0  0  0  0
  135.2532  121.5418  128.0117 H   0  0  0  0  0  0  0  0  0  0  0  0
  134.3639  123.8266  127.5688 H   0  0  0  0  0  0  0  0  0  0  0  0
  133.7130  125.8489  119.2018 H   0  0  0  0  0  0  0  0  0  0  0  0
  1  2  1  0
  2  3  1  0
  3  4  2  0
  3  5  1  0
  5  6  1  0
  6  7  2  0
  7  8  1  0
  8  9  2  0
  9 10  1  0
 10 11  1  0
 11 12  1  0
 12 13  1  0
 12 14  1  0
 14 15  1  0
 15 16  2  0
 16 17  1  0
 17 18  2  0
 18 19  1  0
 19 20  2  0
  9 21  1  0
 21  5  2  0
 20 15  1  0
  1 22  1  0
  1 23  1  0
  1 24  1  0
  6 25  1  0
  7 26  1  0
  8 27  1  0
 10 28  1  0
 10 29  1  0
 11 30  1  0
 11 31  1  0
 12 32  1  6
 13 33  1  0
 13 34  1  0
 13 35  1  0
 14 36  1  0
 14 37  1  0
 16 38  1  0
 17 39  1  0
 18 40  1  0
 19 41  1  0
 20 42  1  0
 21 43  1  0
M  CHG  1  12   1
M  END
>  <meeko>  (2) 
{"is_sidechain": [false], "free_energy": -7.178, "intermolecular_energy": -11.946, "internal_energy": -0.698}

$$$$
seed-5303
     RDKit          3D

 43 44  0  0  0  0  0  0  0  0999 V2000
  129.5910  127.8340  127.5320 C   0  0  0  0  0  0  0  0  0  0  0  0
  130.5690  126.7900  127.5550 O   0  0  0  0  0  0  0  0  0  0  0  0
  131.5590  126.9490  126.6420 C   0  0  0  0  0  0  0  0  0  0  0  0
  132.2360  127.9510  126.4840 O   0  0  0  0  0  0  0  0  0  0  0  0
  131.7080  125.7200  125.8130 C   0  0  0  0  0  0  0  0  0  0  0  0
  131.4530  124.4830  126.4160 C   0  0  0  0  0  0  0  0  0  0  0  0
  131.5770  123.3040  125.6820 C   0  0  0  0  0  0  0  0  0  0  0  0
  131.9670  123.3490  124.3430 C   0  0  0  0  0  0  0  0  0  0  0  0
  132.2420  124.5760  123.7250 C   0  0  0  0  0  0  0  0  0  0  0  0
  132.7090  124.6200  122.2880 C   0  0  0  0  0  0  0  0  0  0  0  0
  134.2140  124.9010  122.1520 C   0  0  0  0  0  0  0  0  0  0  0  0
  135.0330  123.6220  122.0930 N   0  0  1  0  0  0  0  0  0  0  0  0
  135.5790  123.3350  120.7210 C   0  0  0  0  0  0  0  0  0  0  0  0
  136.1120  123.5950  123.1580 C   0  0  0  0  0  0  0  0  0  0  0  0
  135.6310  123.0260  124.4650 C   0  0  0  0  0  0  0  0  0  0  0  0
  135.3400  121.6560  124.5790 C   0  0  0  0  0  0  0  0  0  0  0  0
  134.9180  121.1230  125.7980 C   0  0  0  0  0  0  0  0  0  0  0  0
  134.7830  121.9490  126.9110 C   0  0  0  0  0  0  0  0  0  0  0  0
  135.0620  123.3100  126.8090 C   0  0  0  0  0  0  0  0  0  0  0  0
  135.4840  123.8480  125.5920 C   0  0  0  0  0  0  0  0  0  0  0  0
  132.0990  125.7620  124.4660 C   0  0  0  0  0  0  0  0  0  0  0  0
  129.3290  128.1137  128.5631 H   0  0  0  0  0  0  0  0  0  0  0  0
  130.0015  128.7095  127.0076 H   0  0  0  0  0  0  0  0  0  0  0  0
  128.6906  127.4814  127.0076 H   0  0  0  0  0  0  0  0  0  0  0  0
  131.1535  124.4407  127.4736 H   0  0  0  0  0  0  0  0  0  0  0  0
  131.3668  122.3358  126.1598 H   0  0  0  0  0  0  0  0  0  0  0  0
  132.0591  122.4152  123.7690 H   0  0  0  0  0  0  0  0  0  0  0  0
  132.4902  123.6495  121.8188 H   0  0  0  0  0  0  0  0  0  0  0  0
  132.1751  125.4455  121.7945 H   0  0  0  0  0  0  0  0  0  0  0  0
  134.3855  125.4745  121.2291 H   0  0  0  0  0  0  0  0  0  0  0  0
  134.5339  125.4666  123.0396 H   0  0  0  0  0  0  0  0  0  0  0  0
  134.4050  122.8430  122.3290 H   0  0  0  0  0  0  0  0  0  0  0  0
  136.5493  122.8249  120.8118 H   0  0  0  0  0  0  0  0  0  0  0  0
  134.8755  122.6901  120.1739 H   0  0  0  0  0  0  0  0  0  0  0  0
  135.7113  124.2801  120.1739 H   0  0  0  0  0  0  0  0  0  0  0  0
  136.9486  122.9803  122.7944 H   0  0  0  0  0  0  0  0  0  0  0  0
  136.4183  124.6350  123.3437 H   0  0  0  0  0  0  0  0  0  0  0  0
  135.4454  120.9998  123.7025 H   0  0  0  0  0  0  0  0  0  0  0  0
  134.6919  120.0496  125.8796 H   0  0  0  0  0  0  0  0  0  0  0  0
  134.4556  121.5261  127.8722 H   0  0  0  0  0  0  0  0  0  0  0  0
  134.9497  123.9614  127.6883 H   0  0  0  0  0  0  0  0  0  0  0  0
  135.7026  124.9234  125.5164 H   0  0  0  0  0  0  0  0  0  0  0  0
  132.2954  126.7318  123.9855 H   0  0  0  0  0  0  0  0  0  0  0  0
  1  2  1  0
  2  3  1  0
  3  4  2  0
  3  5  1  0
  5  6  1  0
  6  7  2  0
  7  8  1  0
  8  9  2  0
  9 10  1  0
 10 11  1  0
 11 12  1  0
 12 13  1  0
 12 14  1  0
 14 15  1  0
 15 16  2  0
 16 17  1  0
 17 18  2  0
 18 19  1  0
 19 20  2  0
  9 21  1  0
 21  5  2  0
 20 15  1  0
  1 22  1  0
  1 23  1  0
  1 24  1  0
  6 25  1  0
  7 26  1  0
  8 27  1  0
 10 28  1  0
 10 29  1  0
 11 30  1  0
 11 31  1  0
 12 32  1  1
 13 33  1  0
 13 34  1  0
 13 35  1  0
 14 36  1  0
 14 37  1  0
 16 38  1  0
 17 39  1  0
 18 40  1  0
 19 41  1  0
 20 42  1  0
 21 43  1  0
M  CHG  1  12   1
M  END
>  <meeko>  (3) 
{"is_sidechain": [false], "free_energy": -7.166, "intermolecular_energy": -10.462, "internal_energy": -2.165}

$$$$
seed-5303
     RDKit          3D

 43 44  0  0  0  0  0  0  0  0999 V2000
  136.4960  127.7510  125.2570 C   0  0  0  0  0  0  0  0  0  0  0  0
  136.9020  126.5830  124.5380 O   0  0  0  0  0  0  0  0  0  0  0  0
  136.3030  126.4510  123.3280 C   0  0  0  0  0  0  0  0  0  0  0  0
  136.0390  127.3570  122.5560 O   0  0  0  0  0  0  0  0  0  0  0  0
  135.9750  125.0240  123.0600 C   0  0  0  0  0  0  0  0  0  0  0  0
  135.5710  124.6710  121.7670 C   0  0  0  0  0  0  0  0  0  0  0  0
  135.2550  123.3470  121.4650 C   0  0  0  0  0  0  0  0  0  0  0  0
  135.3290  122.3660  122.4540 C   0  0  0  0  0  0  0  0  0  0  0  0
  135.7150  122.7000  123.7590 C   0  0  0  0  0  0  0  0  0  0  0  0
  135.7490  121.6440  124.8400 C   0  0  0  0  0  0  0  0  0  0  0  0
  135.0520  122.0870  126.1360 C   0  0  0  0  0  0  0  0  0  0  0  0
  133.5380  122.0520  126.0130 N   0  0  1  0  0  0  0  0  0  0  0  0
  132.9080  120.9350  126.8000 C   0  0  0  0  0  0  0  0  0  0  0  0
  132.9170  123.3980  126.3300 C   0  0  0  0  0  0  0  0  0  0  0  0
  132.6820  124.2380  125.1050 C   0  0  0  0  0  0  0  0  0  0  0  0
  132.2320  123.6450  123.9130 C   0  0  0  0  0  0  0  0  0  0  0  0
  131.9890  124.4270  122.7830 C   0  0  0  0  0  0  0  0  0  0  0  0
  132.1920  125.8040  122.8310 C   0  0  0  0  0  0  0  0  0  0  0  0
  132.6430  126.4030  124.0050 C   0  0  0  0  0  0  0  0  0  0  0  0
  132.8890  125.6250  125.1370 C   0  0  0  0  0  0  0  0  0  0  0  0
  136.0480  124.0330  124.0530 C   0  0  0  0  0  0  0  0  0  0  0  0
  136.5631  127.5580  126.3379 H   0  0  0  0  0  0  0  0  0  0  0  0
  137.1547  128.5915  124.9930 H   0  0  0  0  0  0  0  0  0  0  0  0
  135.4580  128.0017  124.9930 H   0  0  0  0  0  0  0  0  0  0  0  0
  135.5025  125.4420  120.9854 H   0  0  0  0  0  0  0  0  0  0  0  0
  134.9467  123.0754  120.4446 H   0  0  0  0  0  0  0  0  0  0  0  0
  135.0825  121.3227  122.2077 H   0  0  0  0  0  0  0  0  0  0  0  0
  135.2468  120.7408  124.4633 H   0  0  0  0  0  0  0  0  0  0  0  0
  136.8053  121.4563  125.0827 H   0  0  0  0  0  0  0  0  0  0  0  0
  135.3571  121.4136  126.9506 H   0  0  0  0  0  0  0  0  0  0  0  0
  135.3506  123.1253  126.3426 H   0  0  0  0  0  0  0  0  0  0  0  0
  133.3120  121.8800  125.0250 H   0  0  0  0  0  0  0  0  0  0  0  0
  133.0210  121.1353  127.8757 H   0  0  0  0  0  0  0  0  0  0  0  0
  131.8389  120.8678  126.5498 H   0  0  0  0  0  0  0  0  0  0  0  0
  133.4035  119.9853  126.5498 H   0  0  0  0  0  0  0  0  0  0  0  0
  131.9520  123.2300  126.8306 H   0  0  0  0  0  0  0  0  0  0  0  0
  133.6230  123.9435  126.9735 H   0  0  0  0  0  0  0  0  0  0  0  0
  132.0703  122.5578  123.8704 H   0  0  0  0  0  0  0  0  0  0  0  0
  131.6369  123.9555  121.8537 H   0  0  0  0  0  0  0  0  0  0  0  0
  131.9959  126.4194  121.9406 H   0  0  0  0  0  0  0  0  0  0  0  0
  132.8054  127.4904  124.0397 H   0  0  0  0  0  0  0  0  0  0  0  0
  133.2477  126.1026  126.0607 H   0  0  0  0  0  0  0  0  0  0  0  0
  136.3688  124.3030  125.0699 H   0  0  0  0  0  0  0  0  0  0  0  0
  1  2  1  0
  2  3  1  0
  3  4  2  0
  3  5  1  0
  5  6  1  0
  6  7  2  0
  7  8  1  0
  8  9  2  0
  9 10  1  0
 10 11  1  0
 11 12  1  0
 12 13  1  0
 12 14  1  0
 14 15  1  0
 15 16  2  0
 16 17  1  0
 17 18  2  0
 18 19  1  0
 19 20  2  0
  9 21  1  0
 21  5  2  0
 20 15  1  0
  1 22  1  0
  1 23  1  0
  1 24  1  0
  6 25  1  0
  7 26  1  0
  8 27  1  0
 10 28  1  0
 10 29  1  0
 11 30  1  0
 11 31  1  0
 12 32  1  6
 13 33  1  0
 13 34  1  0
 13 35  1  0
 14 36  1  0
 14 37  1  0
 16 38  1  0
 17 39  1  0
 18 40  1  0
 19 41  1  0
 20 42  1  0
 21 43  1  0
M  CHG  1  12   1
M  END
>  <meeko>  (4) 
{"is_sidechain": [false], "free_energy": -7.151, "intermolecular_energy": -10.019, "internal_energy": -2.587}

$$$$
seed-5303
     RDKit          3D

 43 44  0  0  0  0  0  0  0  0999 V2000
  134.7020  122.8080  116.6940 C   0  0  0  0  0  0  0  0  0  0  0  0
  135.3170  123.2230  117.9180 O   0  0  0  0  0  0  0  0  0  0  0  0
  134.7390  124.3160  118.4760 C   0  0  0  0  0  0  0  0  0  0  0  0
  134.2100  125.2350  117.8730 O   0  0  0  0  0  0  0  0  0  0  0  0
  134.8530  124.2680  119.9590 C   0  0  0  0  0  0  0  0  0  0  0  0
  135.7200  123.3250  120.5240 C   0  0  0  0  0  0  0  0  0  0  0  0
  135.8630  123.2420  121.9090 C   0  0  0  0  0  0  0  0  0  0  0  0
  135.1350  124.0920  122.7420 C   0  0  0  0  0  0  0  0  0  0  0  0
  134.2500  125.0320  122.1980 C   0  0  0  0  0  0  0  0  0  0  0  0
  133.4280  125.9200  123.1030 C   0  0  0  0  0  0  0  0  0  0  0  0
  132.5470  125.1300  124.0830 C   0  0  0  0  0  0  0  0  0  0  0  0
  132.8500  125.4740  125.5320 N   0  0  1  0  0  0  0  0  0  0  0  0
  132.0010  126.5980  126.0600 C   0  0  0  0  0  0  0  0  0  0  0  0
  132.7990  124.2480  126.4230 C   0  0  0  0  0  0  0  0  0  0  0  0
  133.8940  123.2610  126.1240 C   0  0  0  0  0  0  0  0  0  0  0  0
  133.5810  121.9700  125.6650 C   0  0  0  0  0  0  0  0  0  0  0  0
  134.5970  121.0630  125.3630 C   0  0  0  0  0  0  0  0  0  0  0  0
  135.9310  121.4320  125.5160 C   0  0  0  0  0  0  0  0  0  0  0  0
  136.2540  122.7070  125.9760 C   0  0  0  0  0  0  0  0  0  0  0  0
  135.2420  123.6190  126.2800 C   0  0  0  0  0  0  0  0  0  0  0  0
  134.1230  125.1220  120.8010 C   0  0  0  0  0  0  0  0  0  0  0  0
  133.8093  122.2056  116.9180 H   0  0  0  0  0  0  0  0  0  0  0  0
  134.4096  123.6942  116.1116 H   0  0  0  0  0  0  0  0  0  0  0  0
  135.4144  122.2052  116.1116 H   0  0  0  0  0  0  0  0  0  0  0  0
  136.2909  122.6466  119.8729 H   0  0  0  0  0  0  0  0  0  0  0  0
  136.5519  122.5041  122.3458 H   0  0  0  0  0  0  0  0  0  0  0  0
  135.2567  124.0237  123.8331 H   0  0  0  0  0  0  0  0  0  0  0  0
  134.1115  126.5579  123.6826 H   0  0  0  0  0  0  0  0  0  0  0  0
  132.7575  126.5112  122.4620 H   0  0  0  0  0  0  0  0  0  0  0  0
  131.4917  125.3621  123.8769 H   0  0  0  0  0  0  0  0  0  0  0  0
  132.7568  124.0599  123.9388 H   0  0  0  0  0  0  0  0  0  0  0  0
  133.8250  125.7950  125.5750 H   0  0  0  0  0  0  0  0  0  0  0  0
  132.0135  126.5815  127.1598 H   0  0  0  0  0  0  0  0  0  0  0  0
  132.4010  127.5585  125.7031 H   0  0  0  0  0  0  0  0  0  0  0  0
  130.9677  126.4759  125.7031 H   0  0  0  0  0  0  0  0  0  0  0  0
  132.8940  124.5710  127.4702 H   0  0  0  0  0  0  0  0  0  0  0  0
  131.8397  123.7435  126.2356 H   0  0  0  0  0  0  0  0  0  0  0  0
  132.5289  121.6731  125.5432 H   0  0  0  0  0  0  0  0  0  0  0  0
  134.3440  120.0547  125.0034 H   0  0  0  0  0  0  0  0  0  0  0  0
  136.7304  120.7164  125.2735 H   0  0  0  0  0  0  0  0  0  0  0  0
  137.3083  122.9953  126.0998 H   0  0  0  0  0  0  0  0  0  0  0  0
  135.5025  124.6239  126.6439 H   0  0  0  0  0  0  0  0  0  0  0  0
  133.4448  125.8691  120.3630 H   0  0  0  0  0  0  0  0  0  0  0  0
  1  2  1  0
  2  3  1  0
  3  4  2  0
  3  5  1  0
  5  6  1  0
  6  7  2  0
  7  8  1  0
  8  9  2  0
  9 10  1  0
 10 11  1  0
 11 12  1  0
 12 13  1  0
 12 14  1  0
 14 15  1  0
 15 16  2  0
 16 17  1  0
 17 18  2  0
 18 19  1  0
 19 20  2  0
  9 21  1  0
 21  5  2  0
 20 15  1  0
  1 22  1  0
  1 23  1  0
  1 24  1  0
  6 25  1  0
  7 26  1  0
  8 27  1  0
 10 28  1  0
 10 29  1  0
 11 30  1  0
 11 31  1  0
 12 32  1  6
 13 33  1  0
 13 34  1  0
 13 35  1  0
 14 36  1  0
 14 37  1  0
 16 38  1  0
 17 39  1  0
 18 40  1  0
 19 41  1  0
 20 42  1  0
 21 43  1  0
M  CHG  1  12   1
M  END
>  <meeko>  (5) 
{"is_sidechain": [false], "free_energy": -7.098, "intermolecular_energy": -11.174, "internal_energy": -1.358}

$$$$
seed-5303
     RDKit          3D

 43 44  0  0  0  0  0  0  0  0999 V2000
  136.1940  122.8970  122.9950 C   0  0  0  0  0  0  0  0  0  0  0  0
  136.6100  123.3600  124.2840 O   0  0  0  0  0  0  0  0  0  0  0  0
  136.4250  122.4540  125.2750 C   0  0  0  0  0  0  0  0  0  0  0  0
  137.2850  121.7470  125.7730 O   0  0  0  0  0  0  0  0  0  0  0  0
  134.9920  122.4080  125.6800 C   0  0  0  0  0  0  0  0  0  0  0  0
  134.3960  121.1540  125.8540 C   0  0  0  0  0  0  0  0  0  0  0  0
  133.0570  121.0580  126.2350 C   0  0  0  0  0  0  0  0  0  0  0  0
  132.3000  122.2140  126.4330 C   0  0  0  0  0  0  0  0  0  0  0  0
  132.8730  123.4790  126.2480 C   0  0  0  0  0  0  0  0  0  0  0  0
  132.0390  124.7280  126.4180 C   0  0  0  0  0  0  0  0  0  0  0  0
  130.9100  124.8430  125.3820 C   0  0  0  0  0  0  0  0  0  0  0  0
  131.2620  125.7970  124.2530 N   0  0  1  0  0  0  0  0  0  0  0  0
  130.3580  126.9980  124.1940 C   0  0  0  0  0  0  0  0  0  0  0  0
  132.7280  126.1820  124.2790 C   0  0  0  0  0  0  0  0  0  0  0  0
  133.4150  125.9620  122.9590 C   0  0  0  0  0  0  0  0  0  0  0  0
  134.7370  126.3960  122.7650 C   0  0  0  0  0  0  0  0  0  0  0  0
  135.3840  126.1700  121.5500 C   0  0  0  0  0  0  0  0  0  0  0  0
  134.7200  125.5110  120.5190 C   0  0  0  0  0  0  0  0  0  0  0  0
  133.4070  125.0800  120.6970 C   0  0  0  0  0  0  0  0  0  0  0  0
  132.7550  125.3050  121.9100 C   0  0  0  0  0  0  0  0  0  0  0  0
  134.2270  123.5680  125.8810 C   0  0  0  0  0  0  0  0  0  0  0  0
  135.4633  122.0837  123.1158 H   0  0  0  0  0  0  0  0  0  0  0  0
  135.7314  123.7260  122.4393 H   0  0  0  0  0  0  0  0  0  0  0  0
  137.0676  122.5255  122.4393 H   0  0  0  0  0  0  0  0  0  0  0  0
  134.9855  120.2399  125.6897 H   0  0  0  0  0  0  0  0  0  0  0  0
  132.5971  120.0693  126.3796 H   0  0  0  0  0  0  0  0  0  0  0  0
  131.2459  122.1311  126.7365 H   0  0  0  0  0  0  0  0  0  0  0  0
  131.5923  124.7169  127.4232 H   0  0  0  0  0  0  0  0  0  0  0  0
  132.7061  125.5907  126.2740 H   0  0  0  0  0  0  0  0  0  0  0  0
  130.7165  123.8471  124.9569 H   0  0  0  0  0  0  0  0  0  0  0  0
  130.0208  125.2393  125.8941 H   0  0  0  0  0  0  0  0  0  0  0  0
  131.1350  125.2890  123.3690 H   0  0  0  0  0  0  0  0  0  0  0  0
  130.1132  127.3232  125.2159 H   0  0  0  0  0  0  0  0  0  0  0  0
  130.8675  127.8146  123.6615 H   0  0  0  0  0  0  0  0  0  0  0  0
  129.4323  126.7344  123.6615 H   0  0  0  0  0  0  0  0  0  0  0  0
  132.8064  127.2472  124.5422 H   0  0  0  0  0  0  0  0  0  0  0  0
  133.2248  125.5392  125.0206 H   0  0  0  0  0  0  0  0  0  0  0  0
  135.2655  126.9175  123.5766 H   0  0  0  0  0  0  0  0  0  0  0  0
  136.4194  126.5126  121.4065 H   0  0  0  0  0  0  0  0  0  0  0  0
  135.2326  125.3303  119.5626 H   0  0  0  0  0  0  0  0  0  0  0  0
  132.8836  124.5616  119.8801 H   0  0  0  0  0  0  0  0  0  0  0  0
  131.7175  124.9652  122.0444 H   0  0  0  0  0  0  0  0  0  0  0  0
  134.6918  124.5563  125.7500 H   0  0  0  0  0  0  0  0  0  0  0  0
  1  2  1  0
  2  3  1  0
  3  4  2  0
  3  5  1  0
  5  6  1  0
  6  7  2  0
  7  8  1  0
  8  9  2  0
  9 10  1  0
 10 11  1  0
 11 12  1  0
 12 13  1  0
 12 14  1  0
 14 15  1  0
 15 16  2  0
 16 17  1  0
 17 18  2  0
 18 19  1  0
 19 20  2  0
  9 21  1  0
 21  5  2  0
 20 15  1  0
  1 22  1  0
  1 23  1  0
  1 24  1  0
  6 25  1  0
  7 26  1  0
  8 27  1  0
 10 28  1  0
 10 29  1  0
 11 30  1  0
 11 31  1  0
 12 32  1  6
 13 33  1  0
 13 34  1  0
 13 35  1  0
 14 36  1  0
 14 37  1  0
 16 38  1  0
 17 39  1  0
 18 40  1  0
 19 41  1  0
 20 42  1  0
 21 43  1  0
M  CHG  1  12   1
M  END
>  <meeko>  (6) 
{"is_sidechain": [false], "free_energy": -6.365, "intermolecular_energy": -10.637, "internal_energy": -0.863}

$$$$
seed-5303
     RDKit          3D

 43 44  0  0  0  0  0  0  0  0999 V2000
  135.9580  123.1490  121.8870 C   0  0  0  0  0  0  0  0  0  0  0  0
  135.4700  123.7200  123.1040 O   0  0  0  0  0  0  0  0  0  0  0  0
  135.7370  122.9730  124.2040 C   0  0  0  0  0  0  0  0  0  0  0  0
  136.8190  122.4940  124.5010 O   0  0  0  0  0  0  0  0  0  0  0  0
  134.5040  122.7810  125.0170 C   0  0  0  0  0  0  0  0  0  0  0  0
  134.2100  121.4920  125.4760 C   0  0  0  0  0  0  0  0  0  0  0  0
  133.0690  121.2610  126.2430 C   0  0  0  0  0  0  0  0  0  0  0  0
  132.2060  122.3130  126.5500 C   0  0  0  0  0  0  0  0  0  0  0  0
  132.4730  123.6080  126.0870 C   0  0  0  0  0  0  0  0  0  0  0  0
  131.5120  124.7380  126.3800 C   0  0  0  0  0  0  0  0  0  0  0  0
  130.0440  124.3630  126.1200 C   0  0  0  0  0  0  0  0  0  0  0  0
  129.1980  125.5730  125.7640 N   0  0  1  0  0  0  0  0  0  0  0  0
  128.2740  125.9940  126.8730 C   0  0  0  0  0  0  0  0  0  0  0  0
  130.0470  126.7230  125.2560 C   0  0  0  0  0  0  0  0  0  0  0  0
  129.3300  127.5810  124.2500 C   0  0  0  0  0  0  0  0  0  0  0  0
  129.7500  128.9010  124.0140 C   0  0  0  0  0  0  0  0  0  0  0  0
  129.1010  129.6890  123.0620 C   0  0  0  0  0  0  0  0  0  0  0  0
  128.0300  129.1700  122.3400 C   0  0  0  0  0  0  0  0  0  0  0  0
  127.6000  127.8650  122.5700 C   0  0  0  0  0  0  0  0  0  0  0  0
  128.2450  127.0730  123.5200 C   0  0  0  0  0  0  0  0  0  0  0  0
  133.6330  123.8370  125.3280 C   0  0  0  0  0  0  0  0  0  0  0  0
  136.6565  122.3317  122.1197 H   0  0  0  0  0  0  0  0  0  0  0  0
  135.1137  122.7545  121.3026 H   0  0  0  0  0  0  0  0  0  0  0  0
  136.4792  123.9216  121.3026 H   0  0  0  0  0  0  0  0  0  0  0  0
  134.8826  120.6570  125.2304 H   0  0  0  0  0  0  0  0  0  0  0  0
  132.8487  120.2466  126.6070 H   0  0  0  0  0  0  0  0  0  0  0  0
  131.3100  122.1246  127.1596 H   0  0  0  0  0  0  0  0  0  0  0  0
  131.6187  125.0232  127.4370 H   0  0  0  0  0  0  0  0  0  0  0  0
  131.7639  125.5672  125.7025 H   0  0  0  0  0  0  0  0  0  0  0  0
  130.0037  123.6451  125.2875 H   0  0  0  0  0  0  0  0  0  0  0  0
  129.6378  123.9267  127.0444 H   0  0  0  0  0  0  0  0  0  0  0  0
  128.6030  125.3100  124.9680 H   0  0  0  0  0  0  0  0  0  0  0  0
  128.7447  125.7795  127.8438 H   0  0  0  0  0  0  0  0  0  0  0  0
  128.0730  127.0725  126.7933 H   0  0  0  0  0  0  0  0  0  0  0  0
  127.3283  125.4379  126.7933 H   0  0  0  0  0  0  0  0  0  0  0  0
  130.3345  127.3516  126.1117 H   0  0  0  0  0  0  0  0  0  0  0  0
  130.9239  126.2887  124.7536 H   0  0  0  0  0  0  0  0  0  0  0  0
  130.5952  129.3158  124.5828 H   0  0  0  0  0  0  0  0  0  0  0  0
  129.4362  130.7211  122.8821 H   0  0  0  0  0  0  0  0  0  0  0  0
  127.5226  129.7910  121.5870 H   0  0  0  0  0  0  0  0  0  0  0  0
  126.7505  127.4585  122.0016 H   0  0  0  0  0  0  0  0  0  0  0  0
  127.9007  126.0435  123.6979 H   0  0  0  0  0  0  0  0  0  0  0  0
  133.8608  124.8533  124.9742 H   0  0  0  0  0  0  0  0  0  0  0  0
  1  2  1  0
  2  3  1  0
  3  4  2  0
  3  5  1  0
  5  6  1  0
  6  7  2  0
  7  8  1  0
  8  9  2  0
  9 10  1  0
 10 11  1  0
 11 12  1  0
 12 13  1  0
 12 14  1  0
 14 15  1  0
 15 16  2  0
 16 17  1  0
 17 18  2  0
 18 19  1  0
 19 20  2  0
  9 21  1  0
 21  5  2  0
 20 15  1  0
  1 22  1  0
  1 23  1  0
  1 24  1  0
  6 25  1  0
  7 26  1  0
  8 27  1  0
 10 28  1  0
 10 29  1  0
 11 30  1  0
 11 31  1  0
 12 32  1  6
 13 33  1  0
 13 34  1  0
 13 35  1  0
 14 36  1  0
 14 37  1  0
 16 38  1  0
 17 39  1  0
 18 40  1  0
 19 41  1  0
 20 42  1  0
 21 43  1  0
M  CHG  1  12   1
M  END
>  <meeko>  (7) 
{"is_sidechain": [false], "free_energy": -6.355, "intermolecular_energy": -11.017, "internal_energy": -0.468}

$$$$
seed-5303
     RDKit          3D

 43 44  0  0  0  0  0  0  0  0999 V2000
  135.0560  122.2720  116.0940 C   0  0  0  0  0  0  0  0  0  0  0  0
  135.5050  123.3090  116.9710 O   0  0  0  0  0  0  0  0  0  0  0  0
  134.4980  123.9980  117.5630 C   0  0  0  0  0  0  0  0  0  0  0  0
  133.5330  124.4850  116.9990 O   0  0  0  0  0  0  0  0  0  0  0  0
  134.7330  124.1110  119.0290 C   0  0  0  0  0  0  0  0  0  0  0  0
  135.7200  123.3010  119.6030 C   0  0  0  0  0  0  0  0  0  0  0  0
  135.9790  123.3710  120.9720 C   0  0  0  0  0  0  0  0  0  0  0  0
  135.2480  124.2420  121.7800 C   0  0  0  0  0  0  0  0  0  0  0  0
  134.2440  125.0490  121.2290 C   0  0  0  0  0  0  0  0  0  0  0  0
  133.4210  125.9570  122.1130 C   0  0  0  0  0  0  0  0  0  0  0  0
  132.2780  125.2240  122.8310 C   0  0  0  0  0  0  0  0  0  0  0  0
  132.1960  125.5900  124.3030 N   0  0  1  0  0  0  0  0  0  0  0  0
  133.5410  125.8720  124.9160 C   0  0  0  0  0  0  0  0  0  0  0  0
  131.2060  126.7130  124.5490 C   0  0  0  0  0  0  0  0  0  0  0  0
  130.6020  126.6710  125.9250 C   0  0  0  0  0  0  0  0  0  0  0  0
  129.9670  125.5050  126.3870 C   0  0  0  0  0  0  0  0  0  0  0  0
  129.4280  125.4560  127.6730 C   0  0  0  0  0  0  0  0  0  0  0  0
  129.5160  126.5660  128.5090 C   0  0  0  0  0  0  0  0  0  0  0  0
  130.1380  127.7300  128.0610 C   0  0  0  0  0  0  0  0  0  0  0  0
  130.6780  127.7840  126.7750 C   0  0  0  0  0  0  0  0  0  0  0  0
  133.9990  124.9860  119.8460 C   0  0  0  0  0  0  0  0  0  0  0  0
  134.6883  121.4227  116.6885 H   0  0  0  0  0  0  0  0  0  0  0  0
  134.2430  122.6548  115.4595 H   0  0  0  0  0  0  0  0  0  0  0  0
  135.8914  121.9411  115.4595 H   0  0  0  0  0  0  0  0  0  0  0  0
  136.2938  122.6064  118.9719 H   0  0  0  0  0  0  0  0  0  0  0  0
  136.7616  122.7378  121.4154 H   0  0  0  0  0  0  0  0  0  0  0  0
  135.4614  124.2956  122.8578 H   0  0  0  0  0  0  0  0  0  0  0  0
  134.0827  126.4015  122.8710 H   0  0  0  0  0  0  0  0  0  0  0  0
  132.9655  126.7207  121.4655 H   0  0  0  0  0  0  0  0  0  0  0  0
  131.3270  125.4902  122.3464 H   0  0  0  0  0  0  0  0  0  0  0  0
  132.4742  124.1438  122.7623 H   0  0  0  0  0  0  0  0  0  0  0  0
  131.8080  124.7800  124.8020 H   0  0  0  0  0  0  0  0  0  0  0  0
  133.4552  125.8540  126.0125 H   0  0  0  0  0  0  0  0  0  0  0  0
  134.2598  125.1050  124.5918 H   0  0  0  0  0  0  0  0  0  0  0  0
  133.8912  126.8631  124.5918 H   0  0  0  0  0  0  0  0  0  0  0  0
  131.7270  127.6736  124.4238 H   0  0  0  0  0  0  0  0  0  0  0  0
  130.3861  126.5940  123.8254 H   0  0  0  0  0  0  0  0  0  0  0  0
  129.8946  124.6255  125.7303 H   0  0  0  0  0  0  0  0  0  0  0  0
  128.9330  124.5396  128.0268 H   0  0  0  0  0  0  0  0  0  0  0  0
  129.0942  126.5242  129.5241 H   0  0  0  0  0  0  0  0  0  0  0  0
  130.2034  128.6071  128.7216 H   0  0  0  0  0  0  0  0  0  0  0  0
  131.1664  128.7057  126.4259 H   0  0  0  0  0  0  0  0  0  0  0  0
  133.2252  125.6280  119.3998 H   0  0  0  0  0  0  0  0  0  0  0  0
  1  2  1  0
  2  3  1  0
  3  4  2  0
  3  5  1  0
  5  6  1  0
  6  7  2  0
  7  8  1  0
  8  9  2  0
  9 10  1  0
 10 11  1  0
 11 12  1  0
 12 13  1  0
 12 14  1  0
 14 15  1  0
 15 16  2  0
 16 17  1  0
 17 18  2  0
 18 19  1  0
 19 20  2  0
  9 21  1  0
 21  5  2  0
 20 15  1  0
  1 22  1  0
  1 23  1  0
  1 24  1  0
  6 25  1  0
  7 26  1  0
  8 27  1  0
 10 28  1  0
 10 29  1  0
 11 30  1  0
 11 31  1  0
 12 32  1  1
 13 33  1  0
 13 34  1  0
 13 35  1  0
 14 36  1  0
 14 37  1  0
 16 38  1  0
 17 39  1  0
 18 40  1  0
 19 41  1  0
 20 42  1  0
 21 43  1  0
M  CHG  1  12   1
M  END
>  <meeko>  (8) 
{"is_sidechain": [false], "free_energy": -6.303, "intermolecular_energy": -10.934, "internal_energy": -0.477}

$$$$
seed-5303
     RDKit          3D

 43 44  0  0  0  0  0  0  0  0999 V2000
  129.1620  128.6920  126.6120 C   0  0  0  0  0  0  0  0  0  0  0  0
  129.9910  127.8110  125.8480 O   0  0  0  0  0  0  0  0  0  0  0  0
  131.0820  127.3670  126.5210 C   0  0  0  0  0  0  0  0  0  0  0  0
  131.8870  128.0600  127.1190 O   0  0  0  0  0  0  0  0  0  0  0  0
  131.1930  125.8860  126.4160 C   0  0  0  0  0  0  0  0  0  0  0  0
  130.3600  125.1030  127.2230 C   0  0  0  0  0  0  0  0  0  0  0  0
  130.4250  123.7110  127.1610 C   0  0  0  0  0  0  0  0  0  0  0  0
  131.3300  123.0900  126.3000 C   0  0  0  0  0  0  0  0  0  0  0  0
  132.1850  123.8550  125.4960 C   0  0  0  0  0  0  0  0  0  0  0  0
  133.1970  123.1800  124.5990 C   0  0  0  0  0  0  0  0  0  0  0  0
  134.6440  123.3550  125.0850 C   0  0  0  0  0  0  0  0  0  0  0  0
  135.4740  124.1910  124.1250 N   0  0  1  0  0  0  0  0  0  0  0  0
  136.6140  124.9040  124.8000 C   0  0  0  0  0  0  0  0  0  0  0  0
  135.9310  123.3820  122.9270 C   0  0  0  0  0  0  0  0  0  0  0  0
  135.4020  123.9150  121.6240 C   0  0  0  0  0  0  0  0  0  0  0  0
  134.5850  125.0580  121.6030 C   0  0  0  0  0  0  0  0  0  0  0  0
  134.1150  125.5680  120.3930 C   0  0  0  0  0  0  0  0  0  0  0  0
  134.4520  124.9440  119.1950 C   0  0  0  0  0  0  0  0  0  0  0  0
  135.2550  123.8050  119.2020 C   0  0  0  0  0  0  0  0  0  0  0  0
  135.7280  123.2910  120.4110 C   0  0  0  0  0  0  0  0  0  0  0  0
  132.1030  125.2570  125.5510 C   0  0  0  0  0  0  0  0  0  0  0  0
  129.3291  128.5145  127.6846 H   0  0  0  0  0  0  0  0  0  0  0  0
  129.4139  129.7349  126.3694 H   0  0  0  0  0  0  0  0  0  0  0  0
  128.1057  128.5040  126.3694 H   0  0  0  0  0  0  0  0  0  0  0  0
  129.6504  125.5877  127.9097 H   0  0  0  0  0  0  0  0  0  0  0  0
  129.7614  123.1018  127.7922 H   0  0  0  0  0  0  0  0  0  0  0  0
  131.3726  121.9919  126.2520 H   0  0  0  0  0  0  0  0  0  0  0  0
  132.9683  122.1047  124.5601 H   0  0  0  0  0  0  0  0  0  0  0  0
  133.1241  123.6524  123.6083 H   0  0  0  0  0  0  0  0  0  0  0  0
  134.6306  123.8513  126.0666 H   0  0  0  0  0  0  0  0  0  0  0  0
  135.1026  122.3571  125.1476 H   0  0  0  0  0  0  0  0  0  0  0  0
  134.8590  124.9170  123.7380 H   0  0  0  0  0  0  0  0  0  0  0  0
  136.4973  124.8310  125.8914 H   0  0  0  0  0  0  0  0  0  0  0  0
  137.5653  124.4397  124.5011 H   0  0  0  0  0  0  0  0  0  0  0  0
  136.6128  125.9626  124.5011 H   0  0  0  0  0  0  0  0  0  0  0  0
  137.0303  123.3973  122.8919 H   0  0  0  0  0  0  0  0  0  0  0  0
  135.5393  122.3614  123.0493 H   0  0  0  0  0  0  0  0  0  0  0  0
  134.3144  125.5537  122.5469 H   0  0  0  0  0  0  0  0  0  0  0  0
  133.4773  126.4643  120.3852 H   0  0  0  0  0  0  0  0  0  0  0  0
  134.0839  125.3506  118.2415 H   0  0  0  0  0  0  0  0  0  0  0  0
  135.5163  123.3107  118.2547 H   0  0  0  0  0  0  0  0  0  0  0  0
  136.3603  122.3909  120.4121 H   0  0  0  0  0  0  0  0  0  0  0  0
  132.7574  125.8669  124.9109 H   0  0  0  0  0  0  0  0  0  0  0  0
  1  2  1  0
  2  3  1  0
  3  4  2  0
  3  5  1  0
  5  6  1  0
  6  7  2  0
  7  8  1  0
  8  9  2  0
  9 10  1  0
 10 11  1  0
 11 12  1  0
 12 13  1  0
 12 14  1  0
 14 15  1  0
 15 16  2  0
 16 17  1  0
 17 18  2  0
 18 19  1  0
 19 20  2  0
  9 21  1  0
 21  5  2  0
 20 15  1  0
  1 22  1  0
  1 23  1  0
  1 24  1  0
  6 25  1  0
  7 26  1  0
  8 27  1  0
 10 28  1  0
 10 29  1  0
 11 30  1  0
 11 31  1  0
 12 32  1  6
 13 33  1  0
 13 34  1  0
 13 35  1  0
 14 36  1  0
 14 37  1  0
 16 38  1  0
 17 39  1  0
 18 40  1  0
 19 41  1  0
 20 42  1  0
 21 43  1  0
M  CHG  1  12   1
M  END
>  <meeko>  (9) 
{"is_sidechain": [false], "free_energy": -6.3, "intermolecular_energy": -10.638, "internal_energy": -0.77}

$$$$
seed-5303
     RDKit          3D

 43 44  0  0  0  0  0  0  0  0999 V2000
  127.1520  125.8900  128.1680 C   0  0  0  0  0  0  0  0  0  0  0  0
  128.2040  126.4650  127.3880 O   0  0  0  0  0  0  0  0  0  0  0  0
  129.4200  126.4100  127.9860 C   0  0  0  0  0  0  0  0  0  0  0  0
  129.7280  126.9470  129.0360 O   0  0  0  0  0  0  0  0  0  0  0  0
  130.3700  125.6070  127.1670 C   0  0  0  0  0  0  0  0  0  0  0  0
  130.2110  124.2170  127.1460 C   0  0  0  0  0  0  0  0  0  0  0  0
  131.0740  123.4210  126.3920 C   0  0  0  0  0  0  0  0  0  0  0  0
  132.1080  124.0060  125.6620 C   0  0  0  0  0  0  0  0  0  0  0  0
  132.2950  125.3950  125.6820 C   0  0  0  0  0  0  0  0  0  0  0  0
  133.4450  126.0220  124.9280 C   0  0  0  0  0  0  0  0  0  0  0  0
  134.0680  125.0790  123.8860 C   0  0  0  0  0  0  0  0  0  0  0  0
  135.5500  125.3460  123.6850 N   0  0  1  0  0  0  0  0  0  0  0  0
  135.8600  126.7980  123.4420 C   0  0  0  0  0  0  0  0  0  0  0  0
  136.3840  124.7610  124.8080 C   0  0  0  0  0  0  0  0  0  0  0  0
  135.8270  123.4680  125.3380 C   0  0  0  0  0  0  0  0  0  0  0  0
  135.4310  123.3630  126.6820 C   0  0  0  0  0  0  0  0  0  0  0  0
  134.8900  122.1720  127.1690 C   0  0  0  0  0  0  0  0  0  0  0  0
  134.7420  121.0770  126.3220 C   0  0  0  0  0  0  0  0  0  0  0  0
  135.1370  121.1660  124.9890 C   0  0  0  0  0  0  0  0  0  0  0  0
  135.6780  122.3550  124.4970 C   0  0  0  0  0  0  0  0  0  0  0  0
  131.4120  126.1920  126.4300 C   0  0  0  0  0  0  0  0  0  0  0  0
  127.3786  126.0139  129.2373 H   0  0  0  0  0  0  0  0  0  0  0  0
  126.2034  126.3951  127.9333 H   0  0  0  0  0  0  0  0  0  0  0  0
  127.0649  124.8189  127.9333 H   0  0  0  0  0  0  0  0  0  0  0  0
  129.4020  123.7497  127.7266 H   0  0  0  0  0  0  0  0  0  0  0  0
  130.9383  122.3296  126.3734 H   0  0  0  0  0  0  0  0  0  0  0  0
  132.7818  123.3729  125.0661 H   0  0  0  0  0  0  0  0  0  0  0  0
  133.0765  126.9204  124.4112 H   0  0  0  0  0  0  0  0  0  0  0  0
  134.2275  126.2617  125.6630 H   0  0  0  0  0  0  0  0  0  0  0  0
  133.9377  124.0407  124.2250 H   0  0  0  0  0  0  0  0  0  0  0  0
  133.5599  125.2530  122.9260 H   0  0  0  0  0  0  0  0  0  0  0  0
  135.8430  124.8360  122.8410 H   0  0  0  0  0  0  0  0  0  0  0  0
  135.9705  127.3157  124.4063 H   0  0  0  0  0  0  0  0  0  0  0  0
  136.7964  126.8824  122.8710 H   0  0  0  0  0  0  0  0  0  0  0  0
  135.0397  127.2575  122.8710 H   0  0  0  0  0  0  0  0  0  0  0  0
  137.4008  124.5768  124.4309 H   0  0  0  0  0  0  0  0  0  0  0  0
  136.3794  125.4862  125.6351 H   0  0  0  0  0  0  0  0  0  0  0  0
  135.5481  124.2252  127.3550 H   0  0  0  0  0  0  0  0  0  0  0  0
  134.5806  122.0986  128.2220 H   0  0  0  0  0  0  0  0  0  0  0  0
  134.3125  120.1400  126.7060 H   0  0  0  0  0  0  0  0  0  0  0  0
  135.0224  120.2979  124.3232 H   0  0  0  0  0  0  0  0  0  0  0  0
  135.9893  122.4197  123.4439 H   0  0  0  0  0  0  0  0  0  0  0  0
  131.5384  127.2847  126.4382 H   0  0  0  0  0  0  0  0  0  0  0  0
  1  2  1  0
  2  3  1  0
  3  4  2  0
  3  5  1  0
  5  6  1  0
  6  7  2  0
  7  8  1  0
  8  9  2  0
  9 10  1  0
 10 11  1  0
 11 12  1  0
 12 13  1  0
 12 14  1  0
 14 15  1  0
 15 16  2  0
 16 17  1  0
 17 18  2  0
 18 19  1  0
 19 20  2  0
  9 21  1  0
 21  5  2  0
 20 15  1  0
  1 22  1  0
  1 23  1  0
  1 24  1  0
  6 25  1  0
  7 26  1  0
  8 27  1  0
 10 28  1  0
 10 29  1  0
 11 30  1  0
 11 31  1  0
 12 32  1  6
 13 33  1  0
 13 34  1  0
 13 35  1  0
 14 36  1  0
 14 37  1  0
 16 38  1  0
 17 39  1  0
 18 40  1  0
 19 41  1  0
 20 42  1  0
 21 43  1  0
M  CHG  1  12   1
M  END
>  <meeko>  (10) 
{"is_sidechain": [false], "free_energy": -6.295, "intermolecular_energy": -10.422, "internal_energy": -0.978}

$$$$
seed-5303
     RDKit          3D

 43 44  0  0  0  0  0  0  0  0999 V2000
  134.5830  122.7860  116.9540 C   0  0  0  0  0  0  0  0  0  0  0  0
  135.2060  123.3520  118.1100 O   0  0  0  0  0  0  0  0  0  0  0  0
  134.6130  124.4910  118.5470 C   0  0  0  0  0  0  0  0  0  0  0  0
  134.2150  125.4070  117.8470 O   0  0  0  0  0  0  0  0  0  0  0  0
  134.5270  124.4980  120.0340 C   0  0  0  0  0  0  0  0  0  0  0  0
  135.2300  123.5150  120.7400 C   0  0  0  0  0  0  0  0  0  0  0  0
  135.1820  123.4810  122.1340 C   0  0  0  0  0  0  0  0  0  0  0  0
  134.4250  124.4210  122.8330 C   0  0  0  0  0  0  0  0  0  0  0  0
  133.7010  125.4040  122.1440 C   0  0  0  0  0  0  0  0  0  0  0  0
  132.8440  126.3920  122.9010 C   0  0  0  0  0  0  0  0  0  0  0  0
  131.4940  125.8050  123.3410 C   0  0  0  0  0  0  0  0  0  0  0  0
  131.3400  125.7890  124.8520 N   0  0  1  0  0  0  0  0  0  0  0  0
  132.4390  126.5300  125.5640 C   0  0  0  0  0  0  0  0  0  0  0  0
  129.9620  126.2540  125.2820 C   0  0  0  0  0  0  0  0  0  0  0  0
  129.3930  127.3140  124.3790 C   0  0  0  0  0  0  0  0  0  0  0  0
  129.9730  128.5930  124.3310 C   0  0  0  0  0  0  0  0  0  0  0  0
  129.4620  129.5690  123.4740 C   0  0  0  0  0  0  0  0  0  0  0  0
  128.3700  129.2790  122.6610 C   0  0  0  0  0  0  0  0  0  0  0  0
  127.7820  128.0170  122.7040 C   0  0  0  0  0  0  0  0  0  0  0  0
  128.2890  127.0380  123.5590 C   0  0  0  0  0  0  0  0  0  0  0  0
  133.7660  125.4430  120.7410 C   0  0  0  0  0  0  0  0  0  0  0  0
  133.8027  122.0771  117.2680 H   0  0  0  0  0  0  0  0  0  0  0  0
  134.1296  123.5875  116.3524 H   0  0  0  0  0  0  0  0  0  0  0  0
  135.3375  122.2580  116.3524 H   0  0  0  0  0  0  0  0  0  0  0  0
  135.8226  122.7664  120.1938 H   0  0  0  0  0  0  0  0  0  0  0  0
  135.7429  122.7105  122.6834 H   0  0  0  0  0  0  0  0  0  0  0  0
  134.3959  124.3908  123.9322 H   0  0  0  0  0  0  0  0  0  0  0  0
  133.3930  126.7174  123.7969 H   0  0  0  0  0  0  0  0  0  0  0  0
  132.6315  127.2304  122.2213 H   0  0  0  0  0  0  0  0  0  0  0  0
  130.6856  126.4132  122.9090 H   0  0  0  0  0  0  0  0  0  0  0  0
  131.4463  124.7650  122.9858 H   0  0  0  0  0  0  0  0  0  0  0  0
  131.3990  124.8100  125.1580 H   0  0  0  0  0  0  0  0  0  0  0  0
  132.2999  126.4362  126.6511 H   0  0  0  0  0  0  0  0  0  0  0  0
  133.4124  126.1031  125.2807 H   0  0  0  0  0  0  0  0  0  0  0  0
  132.4082  127.5924  125.2807 H   0  0  0  0  0  0  0  0  0  0  0  0
  129.2828  125.3887  125.2787 H   0  0  0  0  0  0  0  0  0  0  0  0
  130.0605  126.6937  126.2855 H   0  0  0  0  0  0  0  0  0  0  0  0
  130.8352  128.8265  124.9729 H   0  0  0  0  0  0  0  0  0  0  0  0
  129.9223  130.5675  123.4411 H   0  0  0  0  0  0  0  0  0  0  0  0
  127.9706  130.0479  121.9833 H   0  0  0  0  0  0  0  0  0  0  0  0
  126.9168  127.7920  122.0630 H   0  0  0  0  0  0  0  0  0  0  0  0
  127.8200  126.0435  123.5902 H   0  0  0  0  0  0  0  0  0  0  0  0
  133.2158  126.2209  120.1914 H   0  0  0  0  0  0  0  0  0  0  0  0
  1  2  1  0
  2  3  1  0
  3  4  2  0
  3  5  1  0
  5  6  1  0
  6  7  2  0
  7  8  1  0
  8  9  2  0
  9 10  1  0
 10 11  1  0
 11 12  1  0
 12 13  1  0
 12 14  1  0
 14 15  1  0
 15 16  2  0
 16 17  1  0
 17 18  2  0
 18 19  1  0
 19 20  2  0
  9 21  1  0
 21  5  2  0
 20 15  1  0
  1 22  1  0
  1 23  1  0
  1 24  1  0
  6 25  1  0
  7 26  1  0
  8 27  1  0
 10 28  1  0
 10 29  1  0
 11 30  1  0
 11 31  1  0
 12 32  1  1
 13 33  1  0
 13 34  1  0
 13 35  1  0
 14 36  1  0
 14 37  1  0
 16 38  1  0
 17 39  1  0
 18 40  1  0
 19 41  1  0
 20 42  1  0
 21 43  1  0
M  CHG  1  12   1
M  END
>  <meeko>  (11) 
{"is_sidechain": [false], "free_energy": -6.288, "intermolecular_energy": -11.074, "internal_energy": -0.318}

$$$$
seed-5303
     RDKit          3D

 43 44  0  0  0  0  0  0  0  0999 V2000
  134.5400  124.3940  118.4900 C   0  0  0  0  0  0  0  0  0  0  0  0
  135.0630  125.0500  119.6490 O   0  0  0  0  0  0  0  0  0  0  0  0
  135.2340  124.2260  120.7120 C   0  0  0  0  0  0  0  0  0  0  0  0
  135.3030  123.0090  120.6730 O   0  0  0  0  0  0  0  0  0  0  0  0
  135.3070  125.0100  121.9750 C   0  0  0  0  0  0  0  0  0  0  0  0
  136.2860  126.0040  122.0800 C   0  0  0  0  0  0  0  0  0  0  0  0
  136.3940  126.7680  123.2420 C   0  0  0  0  0  0  0  0  0  0  0  0
  135.5310  126.5380  124.3140 C   0  0  0  0  0  0  0  0  0  0  0  0
  134.5540  125.5370  124.2370 C   0  0  0  0  0  0  0  0  0  0  0  0
  133.6510  125.2580  125.4160 C   0  0  0  0  0  0  0  0  0  0  0  0
  132.3970  124.4530  125.0380 C   0  0  0  0  0  0  0  0  0  0  0  0
  131.9280  123.5560  126.1710 N   0  0  1  0  0  0  0  0  0  0  0  0
  130.4590  123.6950  126.4620 C   0  0  0  0  0  0  0  0  0  0  0  0
  132.3360  122.1120  125.9500 C   0  0  0  0  0  0  0  0  0  0  0  0
  133.8250  121.9080  126.0190 C   0  0  0  0  0  0  0  0  0  0  0  0
  134.4890  121.9300  127.2570 C   0  0  0  0  0  0  0  0  0  0  0  0
  135.8660  121.7150  127.3240 C   0  0  0  0  0  0  0  0  0  0  0  0
  136.5920  121.4770  126.1600 C   0  0  0  0  0  0  0  0  0  0  0  0
  135.9470  121.4590  124.9260 C   0  0  0  0  0  0  0  0  0  0  0  0
  134.5690  121.6740  124.8530 C   0  0  0  0  0  0  0  0  0  0  0  0
  134.4400  124.7820  123.0560 C   0  0  0  0  0  0  0  0  0  0  0  0
  133.8823  123.5690  118.8011 H   0  0  0  0  0  0  0  0  0  0  0  0
  133.9655  125.1142  117.8889 H   0  0  0  0  0  0  0  0  0  0  0  0
  135.3701  123.9944  117.8889 H   0  0  0  0  0  0  0  0  0  0  0  0
  136.9746  126.1840  121.2413 H   0  0  0  0  0  0  0  0  0  0  0  0
  137.1610  127.5533  123.3134 H   0  0  0  0  0  0  0  0  0  0  0  0
  135.6184  127.1469  125.2259 H   0  0  0  0  0  0  0  0  0  0  0  0
  134.2199  124.6884  126.1656 H   0  0  0  0  0  0  0  0  0  0  0  0
  133.3121  126.2289  125.8066 H   0  0  0  0  0  0  0  0  0  0  0  0
  131.5888  125.1546  124.7839 H   0  0  0  0  0  0  0  0  0  0  0  0
  132.6531  123.8107  124.1825 H   0  0  0  0  0  0  0  0  0  0  0  0
  132.4260  123.8470  127.0210 H   0  0  0  0  0  0  0  0  0  0  0  0
  130.3006  123.7100  127.5504 H   0  0  0  0  0  0  0  0  0  0  0  0
  130.0856  124.6325  126.0242 H   0  0  0  0  0  0  0  0  0  0  0  0
  129.9164  122.8442  126.0242 H   0  0  0  0  0  0  0  0  0  0  0  0
  131.8602  121.4905  126.7229 H   0  0  0  0  0  0  0  0  0  0  0  0
  132.0100  121.8276  124.9386 H   0  0  0  0  0  0  0  0  0  0  0  0
  133.9197  122.1179  128.1793 H   0  0  0  0  0  0  0  0  0  0  0  0
  136.3784  121.7335  128.2972 H   0  0  0  0  0  0  0  0  0  0  0  0
  137.6767  121.3029  126.2153 H   0  0  0  0  0  0  0  0  0  0  0  0
  136.5237  121.2752  124.0075 H   0  0  0  0  0  0  0  0  0  0  0  0
  134.0642  121.6598  123.8757 H   0  0  0  0  0  0  0  0  0  0  0  0
  133.6646  124.0057  122.9783 H   0  0  0  0  0  0  0  0  0  0  0  0
  1  2  1  0
  2  3  1  0
  3  4  2  0
  3  5  1  0
  5  6  1  0
  6  7  2  0
  7  8  1  0
  8  9  2  0
  9 10  1  0
 10 11  1  0
 11 12  1  0
 12 13  1  0
 12 14  1  0
 14 15  1  0
 15 16  2  0
 16 17  1  0
 17 18  2  0
 18 19  1  0
 19 20  2  0
  9 21  1  0
 21  5  2  0
 20 15  1  0
  1 22  1  0
  1 23  1  0
  1 24  1  0
  6 25  1  0
  7 26  1  0
  8 27  1  0
 10 28  1  0
 10 29  1  0
 11 30  1  0
 11 31  1  0
 12 32  1  1
 13 33  1  0
 13 34  1  0
 13 35  1  0
 14 36  1  0
 14 37  1  0
 16 38  1  0
 17 39  1  0
 18 40  1  0
 19 41  1  0
 20 42  1  0
 21 43  1  0
M  CHG  1  12   1
M  END
>  <meeko>  (12) 
{"is_sidechain": [false], "free_energy": -6.177, "intermolecular_energy": -10.166, "internal_energy": -1.069}

$$$$
seed-5303
     RDKit          3D

 43 44  0  0  0  0  0  0  0  0999 V2000
  136.5390  121.4590  128.1110 C   0  0  0  0  0  0  0  0  0  0  0  0
  136.7300  121.0660  126.7480 O   0  0  0  0  0  0  0  0  0  0  0  0
  136.3580  122.0120  125.8510 C   0  0  0  0  0  0  0  0  0  0  0  0
  137.1010  122.6220  125.1000 O   0  0  0  0  0  0  0  0  0  0  0  0
  134.8870  122.2380  125.9110 C   0  0  0  0  0  0  0  0  0  0  0  0
  134.0410  121.1450  125.6930 C   0  0  0  0  0  0  0  0  0  0  0  0
  132.6570  121.3050  125.7400 C   0  0  0  0  0  0  0  0  0  0  0  0
  132.1050  122.5610  125.9950 C   0  0  0  0  0  0  0  0  0  0  0  0
  132.9330  123.6720  126.2000 C   0  0  0  0  0  0  0  0  0  0  0  0
  132.3330  125.0400  126.4290 C   0  0  0  0  0  0  0  0  0  0  0  0
  132.7560  126.0690  125.3680 C   0  0  0  0  0  0  0  0  0  0  0  0
  132.9160  125.4420  123.9930 N   0  0  1  0  0  0  0  0  0  0  0  0
  131.7240  125.6630  123.1030 C   0  0  0  0  0  0  0  0  0  0  0  0
  134.2130  125.8630  123.3310 C   0  0  0  0  0  0  0  0  0  0  0  0
  134.5840  124.9920  122.1620 C   0  0  0  0  0  0  0  0  0  0  0  0
  134.4600  125.4750  120.8480 C   0  0  0  0  0  0  0  0  0  0  0  0
  134.8270  124.6770  119.7640 C   0  0  0  0  0  0  0  0  0  0  0  0
  135.3190  123.3930  119.9790 C   0  0  0  0  0  0  0  0  0  0  0  0
  135.4410  122.8990  121.2760 C   0  0  0  0  0  0  0  0  0  0  0  0
  135.0740  123.6930  122.3640 C   0  0  0  0  0  0  0  0  0  0  0  0
  134.3280  123.5010  126.1670 C   0  0  0  0  0  0  0  0  0  0  0  0
  136.9218  120.6714  128.7768 H   0  0  0  0  0  0  0  0  0  0  0  0
  137.0820  122.3964  128.3019 H   0  0  0  0  0  0  0  0  0  0  0  0
  135.4664  121.6112  128.3019 H   0  0  0  0  0  0  0  0  0  0  0  0
  134.4703  120.1542  125.4834 H   0  0  0  0  0  0  0  0  0  0  0  0
  131.9986  120.4393  125.5757 H   0  0  0  0  0  0  0  0  0  0  0  0
  131.0121  122.6794  126.0353 H   0  0  0  0  0  0  0  0  0  0  0  0
  131.2369  124.9491  126.4112 H   0  0  0  0  0  0  0  0  0  0  0  0
  132.7004  125.4009  127.4010 H   0  0  0  0  0  0  0  0  0  0  0  0
  131.9892  126.8557  125.3117 H   0  0  0  0  0  0  0  0  0  0  0  0
  133.7309  126.4815  125.6669 H   0  0  0  0  0  0  0  0  0  0  0  0
  133.0010  124.4260  124.1250 H   0  0  0  0  0  0  0  0  0  0  0  0
  130.8299  125.8288  123.7220 H   0  0  0  0  0  0  0  0  0  0  0  0
  131.8988  126.5440  122.4680 H   0  0  0  0  0  0  0  0  0  0  0  0
  131.5714  124.7778  122.4680 H   0  0  0  0  0  0  0  0  0  0  0  0
  134.1060  126.8989  122.9767 H   0  0  0  0  0  0  0  0  0  0  0  0
  135.0122  125.7669  124.0806 H   0  0  0  0  0  0  0  0  0  0  0  0
  134.0710  126.4889  120.6731 H   0  0  0  0  0  0  0  0  0  0  0  0
  134.7274  125.0629  118.7387 H   0  0  0  0  0  0  0  0  0  0  0  0
  135.6121  122.7670  119.1233 H   0  0  0  0  0  0  0  0  0  0  0  0
  135.8268  121.8825  121.4429 H   0  0  0  0  0  0  0  0  0  0  0  0
  135.1696  123.2977  123.3860 H   0  0  0  0  0  0  0  0  0  0  0  0
  134.9874  124.3636  126.3432 H   0  0  0  0  0  0  0  0  0  0  0  0
  1  2  1  0
  2  3  1  0
  3  4  2  0
  3  5  1  0
  5  6  1  0
  6  7  2  0
  7  8  1  0
  8  9  2  0
  9 10  1  0
 10 11  1  0
 11 12  1  0
 12 13  1  0
 12 14  1  0
 14 15  1  0
 15 16  2  0
 16 17  1  0
 17 18  2  0
 18 19  1  0
 19 20  2  0
  9 21  1  0
 21  5  2  0
 20 15  1  0
  1 22  1  0
  1 23  1  0
  1 24  1  0
  6 25  1  0
  7 26  1  0
  8 27  1  0
 10 28  1  0
 10 29  1  0
 11 30  1  0
 11 31  1  0
 12 32  1  1
 13 33  1  0
 13 34  1  0
 13 35  1  0
 14 36  1  0
 14 37  1  0
 16 38  1  0
 17 39  1  0
 18 40  1  0
 19 41  1  0
 20 42  1  0
 21 43  1  0
M  CHG  1  12   1
M  END
>  <meeko>  (13) 
{"is_sidechain": [false], "free_energy": -6.112, "intermolecular_energy": -10.277, "internal_energy": -0.866}

$$$$
seed-5303
     RDKit          3D

 43 44  0  0  0  0  0  0  0  0999 V2000
  128.9850  125.7830  128.1870 C   0  0  0  0  0  0  0  0  0  0  0  0
  130.2070  125.4190  127.5400 O   0  0  0  0  0  0  0  0  0  0  0  0
  130.2870  124.1020  127.2240 C   0  0  0  0  0  0  0  0  0  0  0  0
  129.5700  123.2160  127.6570 O   0  0  0  0  0  0  0  0  0  0  0  0
  131.4060  123.8600  126.2720 C   0  0  0  0  0  0  0  0  0  0  0  0
  132.1160  122.6590  126.3800 C   0  0  0  0  0  0  0  0  0  0  0  0
  133.1710  122.3840  125.5110 C   0  0  0  0  0  0  0  0  0  0  0  0
  133.5340  123.3110  124.5330 C   0  0  0  0  0  0  0  0  0  0  0  0
  132.8470  124.5270  124.4180 C   0  0  0  0  0  0  0  0  0  0  0  0
  133.2710  125.5500  123.3890 C   0  0  0  0  0  0  0  0  0  0  0  0
  133.5800  124.9310  122.0170 C   0  0  0  0  0  0  0  0  0  0  0  0
  134.8370  125.5130  121.3940 N   0  0  1  0  0  0  0  0  0  0  0  0
  135.6120  126.3890  122.3410 C   0  0  0  0  0  0  0  0  0  0  0  0
  135.7030  124.4390  120.7670 C   0  0  0  0  0  0  0  0  0  0  0  0
  135.1340  123.9050  119.4800 C   0  0  0  0  0  0  0  0  0  0  0  0
  134.4300  124.7530  118.6090 C   0  0  0  0  0  0  0  0  0  0  0  0
  133.9240  124.2650  117.4040 C   0  0  0  0  0  0  0  0  0  0  0  0
  134.1140  122.9300  117.0570 C   0  0  0  0  0  0  0  0  0  0  0  0
  134.8050  122.0770  117.9150 C   0  0  0  0  0  0  0  0  0  0  0  0
  135.3130  122.5610  119.1220 C   0  0  0  0  0  0  0  0  0  0  0  0
  131.7740  124.7900  125.2870 C   0  0  0  0  0  0  0  0  0  0  0  0
  129.1214  125.7424  129.2778 H   0  0  0  0  0  0  0  0  0  0  0  0
  128.7031  126.8041  127.8905 H   0  0  0  0  0  0  0  0  0  0  0  0
  128.1903  125.0826  127.8905 H   0  0  0  0  0  0  0  0  0  0  0  0
  131.8403  121.9281  127.1545 H   0  0  0  0  0  0  0  0  0  0  0  0
  133.7187  121.4339  125.5965 H   0  0  0  0  0  0  0  0  0  0  0  0
  134.3647  123.0857  123.8480 H   0  0  0  0  0  0  0  0  0  0  0  0
  132.4592  126.2824  123.2680 H   0  0  0  0  0  0  0  0  0  0  0  0
  134.1968  126.0187  123.7539 H   0  0  0  0  0  0  0  0  0  0  0  0
  133.7155  123.8464  122.1403 H   0  0  0  0  0  0  0  0  0  0  0  0
  132.7365  125.1560  121.3477 H   0  0  0  0  0  0  0  0  0  0  0  0
  134.5450  126.1120  120.6110 H   0  0  0  0  0  0  0  0  0  0  0  0
  135.3684  126.1136  123.3777 H   0  0  0  0  0  0  0  0  0  0  0  0
  136.6897  126.2517  122.1687 H   0  0  0  0  0  0  0  0  0  0  0  0
  135.3444  127.4419  122.1687 H   0  0  0  0  0  0  0  0  0  0  0  0
  136.6963  124.8646  120.5617 H   0  0  0  0  0  0  0  0  0  0  0  0
  135.7556  123.6009  121.4775 H   0  0  0  0  0  0  0  0  0  0  0  0
  134.2767  125.8083  118.8788 H   0  0  0  0  0  0  0  0  0  0  0  0
  133.3743  124.9357  116.7272 H   0  0  0  0  0  0  0  0  0  0  0  0
  133.7181  122.5483  116.1043 H   0  0  0  0  0  0  0  0  0  0  0  0
  134.9504  121.0216  117.6412 H   0  0  0  0  0  0  0  0  0  0  0  0
  135.8572  121.8837  119.7966 H   0  0  0  0  0  0  0  0  0  0  0  0
  131.2171  125.7340  125.1943 H   0  0  0  0  0  0  0  0  0  0  0  0
  1  2  1  0
  2  3  1  0
  3  4  2  0
  3  5  1  0
  5  6  1  0
  6  7  2  0
  7  8  1  0
  8  9  2  0
  9 10  1  0
 10 11  1  0
 11 12  1  0
 12 13  1  0
 12 14  1  0
 14 15  1  0
 15 16  2  0
 16 17  1  0
 17 18  2  0
 18 19  1  0
 19 20  2  0
  9 21  1  0
 21  5  2  0
 20 15  1  0
  1 22  1  0
  1 23  1  0
  1 24  1  0
  6 25  1  0
  7 26  1  0
  8 27  1  0
 10 28  1  0
 10 29  1  0
 11 30  1  0
 11 31  1  0
 12 32  1  6
 13 33  1  0
 13 34  1  0
 13 35  1  0
 14 36  1  0
 14 37  1  0
 16 38  1  0
 17 39  1  0
 18 40  1  0
 19 41  1  0
 20 42  1  0
 21 43  1  0
M  CHG  1  12   1
M  END
>  <meeko>  (14) 
{"is_sidechain": [false], "free_energy": -6.06, "intermolecular_energy": -10.608, "internal_energy": -0.461}

$$$$
seed-5303
     RDKit          3D

 43 44  0  0  0  0  0  0  0  0999 V2000
  137.8930  126.1940  125.4980 C   0  0  0  0  0  0  0  0  0  0  0  0
  137.1150  125.1340  124.9330 O   0  0  0  0  0  0  0  0  0  0  0  0
  135.8560  125.5040  124.5910 C   0  0  0  0  0  0  0  0  0  0  0  0
  135.5540  126.4230  123.8480 O   0  0  0  0  0  0  0  0  0  0  0  0
  134.8540  124.6390  125.2730 C   0  0  0  0  0  0  0  0  0  0  0  0
  135.2590  123.3700  125.7000 C   0  0  0  0  0  0  0  0  0  0  0  0
  134.3580  122.5230  126.3450 C   0  0  0  0  0  0  0  0  0  0  0  0
  133.0420  122.9320  126.5600 C   0  0  0  0  0  0  0  0  0  0  0  0
  132.6110  124.1930  126.1260 C   0  0  0  0  0  0  0  0  0  0  0  0
  131.1720  124.6160  126.3180 C   0  0  0  0  0  0  0  0  0  0  0  0
  130.7030  125.6430  125.2750 C   0  0  0  0  0  0  0  0  0  0  0  0
  129.8980  126.7690  125.9020 N   0  0  1  0  0  0  0  0  0  0  0  0
  130.0510  126.8420  127.3960 C   0  0  0  0  0  0  0  0  0  0  0  0
  130.1760  128.1000  125.2300 C   0  0  0  0  0  0  0  0  0  0  0  0
  129.2480  128.3800  124.0800 C   0  0  0  0  0  0  0  0  0  0  0  0
  129.3360  129.5930  123.3750 C   0  0  0  0  0  0  0  0  0  0  0  0
  128.4930  129.8430  122.2910 C   0  0  0  0  0  0  0  0  0  0  0  0
  127.5560  128.8900  121.9030 C   0  0  0  0  0  0  0  0  0  0  0  0
  127.4540  127.6860  122.5980 C   0  0  0  0  0  0  0  0  0  0  0  0
  128.2950  127.4310  123.6820 C   0  0  0  0  0  0  0  0  0  0  0  0
  133.5280  125.0480  125.4910 C   0  0  0  0  0  0  0  0  0  0  0  0
  137.8501  126.1355  126.5956 H   0  0  0  0  0  0  0  0  0  0  0  0
  138.9375  126.0992  125.1663 H   0  0  0  0  0  0  0  0  0  0  0  0
  137.4894  127.1620  125.1663 H   0  0  0  0  0  0  0  0  0  0  0  0
  136.2933  123.0384  125.5262 H   0  0  0  0  0  0  0  0  0  0  0  0
  134.6862  121.5297  126.6851 H   0  0  0  0  0  0  0  0  0  0  0  0
  132.3380  122.2606  127.0734 H   0  0  0  0  0  0  0  0  0  0  0  0
  130.5319  123.7245  126.2444 H   0  0  0  0  0  0  0  0  0  0  0  0
  131.0988  125.0940  127.3060 H   0  0  0  0  0  0  0  0  0  0  0  0
  131.5856  126.0722  124.7783 H   0  0  0  0  0  0  0  0  0  0  0  0
  130.0534  125.1224  124.5559 H   0  0  0  0  0  0  0  0  0  0  0  0
  128.9050  126.5790  125.7160 H   0  0  0  0  0  0  0  0  0  0  0  0
  129.1583  126.4160  127.8773 H   0  0  0  0  0  0  0  0  0  0  0  0
  130.9401  126.2711  127.7019 H   0  0  0  0  0  0  0  0  0  0  0  0
  130.1665  127.8923  127.7019 H   0  0  0  0  0  0  0  0  0  0  0  0
  130.0620  128.9004  125.9759 H   0  0  0  0  0  0  0  0  0  0  0  0
  131.1986  128.0590  124.8267 H   0  0  0  0  0  0  0  0  0  0  0  0
  130.0738  130.3499  123.6795 H   0  0  0  0  0  0  0  0  0  0  0  0
  128.5693  130.7938  121.7431 H   0  0  0  0  0  0  0  0  0  0  0  0
  126.8947  129.0872  121.0464 H   0  0  0  0  0  0  0  0  0  0  0  0
  126.7098  126.9361  122.2917 H   0  0  0  0  0  0  0  0  0  0  0  0
  128.2100  126.4797  124.2278 H   0  0  0  0  0  0  0  0  0  0  0  0
  133.2044  126.0464  125.1617 H   0  0  0  0  0  0  0  0  0  0  0  0
  1  2  1  0
  2  3  1  0
  3  4  2  0
  3  5  1  0
  5  6  1  0
  6  7  2  0
  7  8  1  0
  8  9  2  0
  9 10  1  0
 10 11  1  0
 11 12  1  0
 12 13  1  0
 12 14  1  0
 14 15  1  0
 15 16  2  0
 16 17  1  0
 17 18  2  0
 18 19  1  0
 19 20  2  0
  9 21  1  0
 21  5  2  0
 20 15  1  0
  1 22  1  0
  1 23  1  0
  1 24  1  0
  6 25  1  0
  7 26  1  0
  8 27  1  0
 10 28  1  0
 10 29  1  0
 11 30  1  0
 11 31  1  0
 12 32  1  1
 13 33  1  0
 13 34  1  0
 13 35  1  0
 14 36  1  0
 14 37  1  0
 16 38  1  0
 17 39  1  0
 18 40  1  0
 19 41  1  0
 20 42  1  0
 21 43  1  0
M  CHG  1  12   1
M  END
>  <meeko>  (15) 
{"is_sidechain": [false], "free_energy": -6.003, "intermolecular_energy": -10.56, "internal_energy": -0.428}

$$$$
seed-5303
     RDKit          3D

 43 44  0  0  0  0  0  0  0  0999 V2000
  135.5860  121.5150  126.8300 C   0  0  0  0  0  0  0  0  0  0  0  0
  134.5400  121.2860  125.8800 O   0  0  0  0  0  0  0  0  0  0  0  0
  133.2940  121.4540  126.3890 C   0  0  0  0  0  0  0  0  0  0  0  0
  132.6970  120.6630  127.1010 O   0  0  0  0  0  0  0  0  0  0  0  0
  132.7160  122.7500  125.9410 C   0  0  0  0  0  0  0  0  0  0  0  0
  131.5140  123.1730  126.5200 C   0  0  0  0  0  0  0  0  0  0  0  0
  130.9330  124.3810  126.1350 C   0  0  0  0  0  0  0  0  0  0  0  0
  131.5430  125.1720  125.1600 C   0  0  0  0  0  0  0  0  0  0  0  0
  132.7370  124.7600  124.5560 C   0  0  0  0  0  0  0  0  0  0  0  0
  133.3710  125.5960  123.4680 C   0  0  0  0  0  0  0  0  0  0  0  0
  133.6120  124.8100  122.1690 C   0  0  0  0  0  0  0  0  0  0  0  0
  134.8170  125.3280  121.4010 N   0  0  1  0  0  0  0  0  0  0  0  0
  135.6310  126.3220  122.1820 C   0  0  0  0  0  0  0  0  0  0  0  0
  135.6640  124.1950  120.8540 C   0  0  0  0  0  0  0  0  0  0  0  0
  135.1760  123.6890  119.5240 C   0  0  0  0  0  0  0  0  0  0  0  0
  135.3840  122.3490  119.1540 C   0  0  0  0  0  0  0  0  0  0  0  0
  134.9090  121.8720  117.9320 C   0  0  0  0  0  0  0  0  0  0  0  0
  134.2250  122.7240  117.0690 C   0  0  0  0  0  0  0  0  0  0  0  0
  134.0170  124.0560  117.4210 C   0  0  0  0  0  0  0  0  0  0  0  0
  134.4910  124.5380  118.6430 C   0  0  0  0  0  0  0  0  0  0  0  0
  133.3260  123.5500  124.9610 C   0  0  0  0  0  0  0  0  0  0  0  0
  135.1816  121.4265  127.8491 H   0  0  0  0  0  0  0  0  0  0  0  0
  136.3822  120.7699  126.6855 H   0  0  0  0  0  0  0  0  0  0  0  0
  135.9980  122.5246  126.6855 H   0  0  0  0  0  0  0  0  0  0  0  0
  131.0250  122.5493  127.2828 H   0  0  0  0  0  0  0  0  0  0  0  0
  129.9925  124.7110  126.6004 H   0  0  0  0  0  0  0  0  0  0  0  0
  131.0823  126.1260  124.8640 H   0  0  0  0  0  0  0  0  0  0  0  0
  132.7069  126.4444  123.2461 H   0  0  0  0  0  0  0  0  0  0  0  0
  134.3522  125.9280  123.8382 H   0  0  0  0  0  0  0  0  0  0  0  0
  133.7799  123.7524  122.4206 H   0  0  0  0  0  0  0  0  0  0  0  0
  132.7252  124.9330  121.5299 H   0  0  0  0  0  0  0  0  0  0  0  0
  134.4650  125.8220  120.5710 H   0  0  0  0  0  0  0  0  0  0  0  0
  135.4882  126.1476  123.2587 H   0  0  0  0  0  0  0  0  0  0  0  0
  136.6950  126.2038  121.9294 H   0  0  0  0  0  0  0  0  0  0  0  0
  135.3053  127.3418  121.9294 H   0  0  0  0  0  0  0  0  0  0  0  0
  136.6968  124.5545  120.7353 H   0  0  0  0  0  0  0  0  0  0  0  0
  135.6006  123.3608  121.5682 H   0  0  0  0  0  0  0  0  0  0  0  0
  135.9246  121.6723  119.8321 H   0  0  0  0  0  0  0  0  0  0  0  0
  135.0750  120.8218  117.6501 H   0  0  0  0  0  0  0  0  0  0  0  0
  133.8482  122.3449  116.1076 H   0  0  0  0  0  0  0  0  0  0  0  0
  133.4792  124.7281  116.7361 H   0  0  0  0  0  0  0  0  0  0  0  0
  134.3259  125.5907  118.9162 H   0  0  0  0  0  0  0  0  0  0  0  0
  134.2738  123.2264  124.5061 H   0  0  0  0  0  0  0  0  0  0  0  0
  1  2  1  0
  2  3  1  0
  3  4  2  0
  3  5  1  0
  5  6  1  0
  6  7  2  0
  7  8  1  0
  8  9  2  0
  9 10  1  0
 10 11  1  0
 11 12  1  0
 12 13  1  0
 12 14  1  0
 14 15  1  0
 15 16  2  0
 16 17  1  0
 17 18  2  0
 18 19  1  0
 19 20  2  0
  9 21  1  0
 21  5  2  0
 20 15  1  0
  1 22  1  0
  1 23  1  0
  1 24  1  0
  6 25  1  0
  7 26  1  0
  8 27  1  0
 10 28  1  0
 10 29  1  0
 11 30  1  0
 11 31  1  0
 12 32  1  6
 13 33  1  0
 13 34  1  0
 13 35  1  0
 14 36  1  0
 14 37  1  0
 16 38  1  0
 17 39  1  0
 18 40  1  0
 19 41  1  0
 20 42  1  0
 21 43  1  0
M  CHG  1  12   1
M  END
>  <meeko>  (16) 
{"is_sidechain": [false], "free_energy": -5.976, "intermolecular_energy": -10.45, "internal_energy": -0.501}

$$$$
seed-5303
     RDKit          3D

 43 44  0  0  0  0  0  0  0  0999 V2000
  135.3490  120.5810  116.2120 C   0  0  0  0  0  0  0  0  0  0  0  0
  135.0460  121.7990  116.8990 O   0  0  0  0  0  0  0  0  0  0  0  0
  135.1650  121.7090  118.2470 C   0  0  0  0  0  0  0  0  0  0  0  0
  135.4210  120.6980  118.8790 O   0  0  0  0  0  0  0  0  0  0  0  0
  134.9150  123.0320  118.8830 C   0  0  0  0  0  0  0  0  0  0  0  0
  134.6280  124.1200  118.0510 C   0  0  0  0  0  0  0  0  0  0  0  0
  134.3840  125.3800  118.5990 C   0  0  0  0  0  0  0  0  0  0  0  0
  134.4340  125.5650  119.9800 C   0  0  0  0  0  0  0  0  0  0  0  0
  134.7360  124.4930  120.8300 C   0  0  0  0  0  0  0  0  0  0  0  0
  134.8360  124.7060  122.3230 C   0  0  0  0  0  0  0  0  0  0  0  0
  136.0700  125.5260  122.7330 C   0  0  0  0  0  0  0  0  0  0  0  0
  136.1690  125.6990  124.2390 N   0  0  1  0  0  0  0  0  0  0  0  0
  136.4400  127.1200  124.6520 C   0  0  0  0  0  0  0  0  0  0  0  0
  134.9670  125.1110  124.9530 C   0  0  0  0  0  0  0  0  0  0  0  0
  135.2240  123.7310  125.4930 C   0  0  0  0  0  0  0  0  0  0  0  0
  136.4320  123.0710  125.2110 C   0  0  0  0  0  0  0  0  0  0  0  0
  136.6820  121.8010  125.7330 C   0  0  0  0  0  0  0  0  0  0  0  0
  135.7310  121.1790  126.5390 C   0  0  0  0  0  0  0  0  0  0  0  0
  134.5270  121.8210  126.8210 C   0  0  0  0  0  0  0  0  0  0  0  0
  134.2730  123.0910  126.3010 C   0  0  0  0  0  0  0  0  0  0  0  0
  134.9640  123.2230  120.2730 C   0  0  0  0  0  0  0  0  0  0  0  0
  135.5469  119.7857  116.9457 H   0  0  0  0  0  0  0  0  0  0  0  0
  134.4950  120.2937  115.5811 H   0  0  0  0  0  0  0  0  0  0  0  0
  136.2381  120.7273  115.5811 H   0  0  0  0  0  0  0  0  0  0  0  0
  134.5946  123.9814  116.9603 H   0  0  0  0  0  0  0  0  0  0  0  0
  134.1516  126.2293  117.9397 H   0  0  0  0  0  0  0  0  0  0  0  0
  134.2349  126.5598  120.4052 H   0  0  0  0  0  0  0  0  0  0  0  0
  133.9342  125.2368  122.6622 H   0  0  0  0  0  0  0  0  0  0  0  0
  134.9303  123.7148  122.7905 H   0  0  0  0  0  0  0  0  0  0  0  0
  136.9732  125.0098  122.3755 H   0  0  0  0  0  0  0  0  0  0  0  0
  135.9761  126.5256  122.2835 H   0  0  0  0  0  0  0  0  0  0  0  0
  136.9700  125.1400  124.5610 H   0  0  0  0  0  0  0  0  0  0  0  0
  136.4527  127.1867  125.7499 H   0  0  0  0  0  0  0  0  0  0  0  0
  137.4150  127.4379  124.2540 H   0  0  0  0  0  0  0  0  0  0  0  0
  135.6505  127.7744  124.2540 H   0  0  0  0  0  0  0  0  0  0  0  0
  134.6988  125.7714  125.7908 H   0  0  0  0  0  0  0  0  0  0  0  0
  134.1528  125.0313  124.2176 H   0  0  0  0  0  0  0  0  0  0  0  0
  137.1854  123.5584  124.5748 H   0  0  0  0  0  0  0  0  0  0  0  0
  137.6303  121.2910  125.5079 H   0  0  0  0  0  0  0  0  0  0  0  0
  135.9309  120.1798  126.9533 H   0  0  0  0  0  0  0  0  0  0  0  0
  133.7758  121.3263  127.4542 H   0  0  0  0  0  0  0  0  0  0  0  0
  133.3207  123.5933  126.5264 H   0  0  0  0  0  0  0  0  0  0  0  0
  135.1830  122.3703  120.9326 H   0  0  0  0  0  0  0  0  0  0  0  0
  1  2  1  0
  2  3  1  0
  3  4  2  0
  3  5  1  0
  5  6  1  0
  6  7  2  0
  7  8  1  0
  8  9  2  0
  9 10  1  0
 10 11  1  0
 11 12  1  0
 12 13  1  0
 12 14  1  0
 14 15  1  0
 15 16  2  0
 16 17  1  0
 17 18  2  0
 18 19  1  0
 19 20  2  0
  9 21  1  0
 21  5  2  0
 20 15  1  0
  1 22  1  0
  1 23  1  0
  1 24  1  0
  6 25  1  0
  7 26  1  0
  8 27  1  0
 10 28  1  0
 10 29  1  0
 11 30  1  0
 11 31  1  0
 12 32  1  1
 13 33  1  0
 13 34  1  0
 13 35  1  0
 14 36  1  0
 14 37  1  0
 16 38  1  0
 17 39  1  0
 18 40  1  0
 19 41  1  0
 20 42  1  0
 21 43  1  0
M  CHG  1  12   1
M  END
>  <meeko>  (17) 
{"is_sidechain": [false], "free_energy": -5.914, "intermolecular_energy": -10.422, "internal_energy": -0.441}

$$$$
seed-5303
     RDKit          3D

 43 44  0  0  0  0  0  0  0  0999 V2000
  129.1030  127.6200  127.1980 C   0  0  0  0  0  0  0  0  0  0  0  0
  130.4850  127.8060  126.8740 O   0  0  0  0  0  0  0  0  0  0  0  0
  130.7250  127.9030  125.5430 C   0  0  0  0  0  0  0  0  0  0  0  0
  130.4570  128.8570  124.8330 O   0  0  0  0  0  0  0  0  0  0  0  0
  131.3550  126.6530  125.0340 C   0  0  0  0  0  0  0  0  0  0  0  0
  131.2290  126.3580  123.6710 C   0  0  0  0  0  0  0  0  0  0  0  0
  131.8020  125.2010  123.1450 C   0  0  0  0  0  0  0  0  0  0  0  0
  132.4980  124.3230  123.9770 C   0  0  0  0  0  0  0  0  0  0  0  0
  132.6220  124.5910  125.3470 C   0  0  0  0  0  0  0  0  0  0  0  0
  133.3350  123.6150  126.2540 C   0  0  0  0  0  0  0  0  0  0  0  0
  134.3130  122.6980  125.5020 C   0  0  0  0  0  0  0  0  0  0  0  0
  135.7210  122.7740  126.0680 N   0  0  1  0  0  0  0  0  0  0  0  0
  136.4150  121.4400  126.1020 C   0  0  0  0  0  0  0  0  0  0  0  0
  136.5500  123.8360  125.3710 C   0  0  0  0  0  0  0  0  0  0  0  0
  136.1490  124.0430  123.9360 C   0  0  0  0  0  0  0  0  0  0  0  0
  136.0530  122.9490  123.0600 C   0  0  0  0  0  0  0  0  0  0  0  0
  135.6560  123.1380  121.7350 C   0  0  0  0  0  0  0  0  0  0  0  0
  135.3530  124.4160  121.2740 C   0  0  0  0  0  0  0  0  0  0  0  0
  135.4490  125.5100  122.1310 C   0  0  0  0  0  0  0  0  0  0  0  0
  135.8460  125.3260  123.4570 C   0  0  0  0  0  0  0  0  0  0  0  0
  132.0560  125.7670  125.8670 C   0  0  0  0  0  0  0  0  0  0  0  0
  128.9817  127.6037  128.2912 H   0  0  0  0  0  0  0  0  0  0  0  0
  128.5129  128.4468  126.7759 H   0  0  0  0  0  0  0  0  0  0  0  0
  128.7525  126.6666  126.7759 H   0  0  0  0  0  0  0  0  0  0  0  0
  130.6751  127.0427  123.0119 H   0  0  0  0  0  0  0  0  0  0  0  0
  131.7053  124.9797  122.0718 H   0  0  0  0  0  0  0  0  0  0  0  0
  132.9523  123.4146  123.5547 H   0  0  0  0  0  0  0  0  0  0  0  0
  133.8983  124.1847  127.0077 H   0  0  0  0  0  0  0  0  0  0  0  0
  132.5686  122.9724  126.7119 H   0  0  0  0  0  0  0  0  0  0  0  0
  133.9559  121.6604  125.5786 H   0  0  0  0  0  0  0  0  0  0  0  0
  134.3515  123.0317  124.4545 H   0  0  0  0  0  0  0  0  0  0  0  0
  135.6450  123.0920  127.0430 H   0  0  0  0  0  0  0  0  0  0  0  0
  136.5734  121.1356  127.1471 H   0  0  0  0  0  0  0  0  0  0  0  0
  135.7928  120.6899  125.5919 H   0  0  0  0  0  0  0  0  0  0  0  0
  137.3864  121.5189  125.5919 H   0  0  0  0  0  0  0  0  0  0  0  0
  136.4276  124.7869  125.9103 H   0  0  0  0  0  0  0  0  0  0  0  0
  137.5956  123.4945  125.3757 H   0  0  0  0  0  0  0  0  0  0  0  0
  136.2920  121.9375  123.4202 H   0  0  0  0  0  0  0  0  0  0  0  0
  135.5826  122.2765  121.0549 H   0  0  0  0  0  0  0  0  0  0  0  0
  135.0370  124.5624  120.2306 H   0  0  0  0  0  0  0  0  0  0  0  0
  135.2120  126.5192  121.7630 H   0  0  0  0  0  0  0  0  0  0  0  0
  135.9216  126.1927  124.1302 H   0  0  0  0  0  0  0  0  0  0  0  0
  132.1633  125.9957  126.9376 H   0  0  0  0  0  0  0  0  0  0  0  0
  1  2  1  0
  2  3  1  0
  3  4  2  0
  3  5  1  0
  5  6  1  0
  6  7  2  0
  7  8  1  0
  8  9  2  0
  9 10  1  0
 10 11  1  0
 11 12  1  0
 12 13  1  0
 12 14  1  0
 14 15  1  0
 15 16  2  0
 16 17  1  0
 17 18  2  0
 18 19  1  0
 19 20  2  0
  9 21  1  0
 21  5  2  0
 20 15  1  0
  1 22  1  0
  1 23  1  0
  1 24  1  0
  6 25  1  0
  7 26  1  0
  8 27  1  0
 10 28  1  0
 10 29  1  0
 11 30  1  0
 11 31  1  0
 12 32  1  1
 13 33  1  0
 13 34  1  0
 13 35  1  0
 14 36  1  0
 14 37  1  0
 16 38  1  0
 17 39  1  0
 18 40  1  0
 19 41  1  0
 20 42  1  0
 21 43  1  0
M  CHG  1  12   1
M  END
>  <meeko>  (18) 
{"is_sidechain": [false], "free_energy": -5.887, "intermolecular_energy": -9.81, "internal_energy": -1.015}

$$$$
seed-5303
     RDKit          3D

 43 44  0  0  0  0  0  0  0  0999 V2000
  129.4370  129.7020  123.2290 C   0  0  0  0  0  0  0  0  0  0  0  0
  128.5830  128.9230  124.0720 O   0  0  0  0  0  0  0  0  0  0  0  0
  128.6800  127.5860  123.8610 C   0  0  0  0  0  0  0  0  0  0  0  0
  127.9250  126.9090  123.1840 O   0  0  0  0  0  0  0  0  0  0  0  0
  129.8440  127.0240  124.6010 C   0  0  0  0  0  0  0  0  0  0  0  0
  129.8720  127.1650  125.9930 C   0  0  0  0  0  0  0  0  0  0  0  0
  130.9390  126.6540  126.7310 C   0  0  0  0  0  0  0  0  0  0  0  0
  131.9930  126.0080  126.0840 C   0  0  0  0  0  0  0  0  0  0  0  0
  131.9930  125.8710  124.6900 C   0  0  0  0  0  0  0  0  0  0  0  0
  133.1580  125.2120  123.9870 C   0  0  0  0  0  0  0  0  0  0  0  0
  134.4940  125.9290  124.2350 C   0  0  0  0  0  0  0  0  0  0  0  0
  135.6560  125.2330  123.5470 N   0  0  1  0  0  0  0  0  0  0  0  0
  136.4430  126.1470  122.6480 C   0  0  0  0  0  0  0  0  0  0  0  0
  136.5400  124.5010  124.5380 C   0  0  0  0  0  0  0  0  0  0  0  0
  135.8430  123.3450  125.2020 C   0  0  0  0  0  0  0  0  0  0  0  0
  135.4070  123.4490  126.5340 C   0  0  0  0  0  0  0  0  0  0  0  0
  134.7380  122.3860  127.1430 C   0  0  0  0  0  0  0  0  0  0  0  0
  134.4980  121.2140  126.4310 C   0  0  0  0  0  0  0  0  0  0  0  0
  134.9290  121.0970  125.1120 C   0  0  0  0  0  0  0  0  0  0  0  0
  135.6000  122.1560  124.4990 C   0  0  0  0  0  0  0  0  0  0  0  0
  130.9070  126.3730  123.9540 C   0  0  0  0  0  0  0  0  0  0  0  0
  130.1073  130.3135  123.8509 H   0  0  0  0  0  0  0  0  0  0  0  0
  130.0354  129.0322  122.5940 H   0  0  0  0  0  0  0  0  0  0  0  0
  128.8249  130.3593  122.5940 H   0  0  0  0  0  0  0  0  0  0  0  0
  129.0482  127.6815  126.5075 H   0  0  0  0  0  0  0  0  0  0  0  0
  130.9498  126.7604  127.8258 H   0  0  0  0  0  0  0  0  0  0  0  0
  132.8296  125.6036  126.6726 H   0  0  0  0  0  0  0  0  0  0  0  0
  133.2441  124.1763  124.3473 H   0  0  0  0  0  0  0  0  0  0  0  0
  132.9572  125.2562  122.9064 H   0  0  0  0  0  0  0  0  0  0  0  0
  134.4203  126.9575  123.8520 H   0  0  0  0  0  0  0  0  0  0  0  0
  134.6872  125.9175  125.3178 H   0  0  0  0  0  0  0  0  0  0  0  0
  135.2620  124.4970  122.9460 H   0  0  0  0  0  0  0  0  0  0  0  0
  137.0392  126.8395  123.2604 H   0  0  0  0  0  0  0  0  0  0  0  0
  137.1132  125.5489  122.0131 H   0  0  0  0  0  0  0  0  0  0  0  0
  135.7520  126.7210  122.0131 H   0  0  0  0  0  0  0  0  0  0  0  0
  137.4232  124.1190  124.0050 H   0  0  0  0  0  0  0  0  0  0  0  0
  136.8154  125.2171  125.3262 H   0  0  0  0  0  0  0  0  0  0  0  0
  135.5940  124.3735  127.0999 H   0  0  0  0  0  0  0  0  0  0  0  0
  134.4002  122.4744  128.1861 H   0  0  0  0  0  0  0  0  0  0  0  0
  133.9670  120.3789  126.9112 H   0  0  0  0  0  0  0  0  0  0  0  0
  134.7403  120.1688  124.5527 H   0  0  0  0  0  0  0  0  0  0  0  0
  135.9405  122.0575  123.4577 H   0  0  0  0  0  0  0  0  0  0  0  0
  130.8890  126.2551  122.8605 H   0  0  0  0  0  0  0  0  0  0  0  0
  1  2  1  0
  2  3  1  0
  3  4  2  0
  3  5  1  0
  5  6  1  0
  6  7  2  0
  7  8  1  0
  8  9  2  0
  9 10  1  0
 10 11  1  0
 11 12  1  0
 12 13  1  0
 12 14  1  0
 14 15  1  0
 15 16  2  0
 16 17  1  0
 17 18  2  0
 18 19  1  0
 19 20  2  0
  9 21  1  0
 21  5  2  0
 20 15  1  0
  1 22  1  0
  1 23  1  0
  1 24  1  0
  6 25  1  0
  7 26  1  0
  8 27  1  0
 10 28  1  0
 10 29  1  0
 11 30  1  0
 11 31  1  0
 12 32  1  6
 13 33  1  0
 13 34  1  0
 13 35  1  0
 14 36  1  0
 14 37  1  0
 16 38  1  0
 17 39  1  0
 18 40  1  0
 19 41  1  0
 20 42  1  0
 21 43  1  0
M  CHG  1  12   1
M  END
>  <meeko>  (19) 
{"is_sidechain": [false], "free_energy": -5.867, "intermolecular_energy": -10.04, "internal_energy": -0.757}

$$$$
seed-5303
     RDKit          3D

 43 44  0  0  0  0  0  0  0  0999 V2000
  128.0410  129.5090  122.0910 C   0  0  0  0  0  0  0  0  0  0  0  0
  128.8600  129.1960  123.2220 O   0  0  0  0  0  0  0  0  0  0  0  0
  128.7750  127.9000  123.6150 C   0  0  0  0  0  0  0  0  0  0  0  0
  128.1150  127.0280  123.0750 O   0  0  0  0  0  0  0  0  0  0  0  0
  129.5920  127.6700  124.8380 C   0  0  0  0  0  0  0  0  0  0  0  0
  129.2490  128.3680  126.0020 C   0  0  0  0  0  0  0  0  0  0  0  0
  129.9820  128.1860  127.1740 C   0  0  0  0  0  0  0  0  0  0  0  0
  131.0710  127.3140  127.1910 C   0  0  0  0  0  0  0  0  0  0  0  0
  131.4420  126.6180  126.0330 C   0  0  0  0  0  0  0  0  0  0  0  0
  132.6500  125.7090  126.0410 C   0  0  0  0  0  0  0  0  0  0  0  0
  133.4610  125.7750  124.7380 C   0  0  0  0  0  0  0  0  0  0  0  0
  134.9570  125.8330  124.9960 N   0  0  1  0  0  0  0  0  0  0  0  0
  135.5440  124.4970  125.3610 C   0  0  0  0  0  0  0  0  0  0  0  0
  135.7000  126.4930  123.8500 C   0  0  0  0  0  0  0  0  0  0  0  0
  135.3900  125.8700  122.5160 C   0  0  0  0  0  0  0  0  0  0  0  0
  136.0020  124.6640  122.1350 C   0  0  0  0  0  0  0  0  0  0  0  0
  135.6960  124.0730  120.9090 C   0  0  0  0  0  0  0  0  0  0  0  0
  134.7800  124.6780  120.0520 C   0  0  0  0  0  0  0  0  0  0  0  0
  134.1710  125.8770  120.4160 C   0  0  0  0  0  0  0  0  0  0  0  0
  134.4740  126.4730  121.6410 C   0  0  0  0  0  0  0  0  0  0  0  0
  130.6880  126.7930  124.8600 C   0  0  0  0  0  0  0  0  0  0  0  0
  127.0655  129.8818  122.4366 H   0  0  0  0  0  0  0  0  0  0  0  0
  128.5346  130.2819  121.4835 H   0  0  0  0  0  0  0  0  0  0  0  0
  127.8933  128.6039  121.4835 H   0  0  0  0  0  0  0  0  0  0  0  0
  128.3969  129.0636  125.9919 H   0  0  0  0  0  0  0  0  0  0  0  0
  129.7011  128.7311  128.0872 H   0  0  0  0  0  0  0  0  0  0  0  0
  131.6424  127.1719  128.1202 H   0  0  0  0  0  0  0  0  0  0  0  0
  133.3036  126.0024  126.8757 H   0  0  0  0  0  0  0  0  0  0  0  0
  132.2840  124.6772  126.1483 H   0  0  0  0  0  0  0  0  0  0  0  0
  133.2395  124.8807  124.1371 H   0  0  0  0  0  0  0  0  0  0  0  0
  133.1737  126.6948  124.2074 H   0  0  0  0  0  0  0  0  0  0  0  0
  135.1070  126.4520  125.8020 H   0  0  0  0  0  0  0  0  0  0  0  0
  135.5859  124.4017  126.4561 H   0  0  0  0  0  0  0  0  0  0  0  0
  134.9154  123.6949  124.9469 H   0  0  0  0  0  0  0  0  0  0  0  0
  136.5600  124.4174  124.9469 H   0  0  0  0  0  0  0  0  0  0  0  0
  135.4187  127.5558  123.8150 H   0  0  0  0  0  0  0  0  0  0  0  0
  136.7763  126.3606  124.0343 H   0  0  0  0  0  0  0  0  0  0  0  0
  136.7271  124.1828  122.8078 H   0  0  0  0  0  0  0  0  0  0  0  0
  136.1787  123.1281  120.6188 H   0  0  0  0  0  0  0  0  0  0  0  0
  134.5372  124.2089  119.0871 H   0  0  0  0  0  0  0  0  0  0  0  0
  133.4499  126.3548  119.7365 H   0  0  0  0  0  0  0  0  0  0  0  0
  133.9919  127.4209  121.9221 H   0  0  0  0  0  0  0  0  0  0  0  0
  130.9593  126.2374  123.9502 H   0  0  0  0  0  0  0  0  0  0  0  0
  1  2  1  0
  2  3  1  0
  3  4  2  0
  3  5  1  0
  5  6  1  0
  6  7  2  0
  7  8  1  0
  8  9  2  0
  9 10  1  0
 10 11  1  0
 11 12  1  0
 12 13  1  0
 12 14  1  0
 14 15  1  0
 15 16  2  0
 16 17  1  0
 17 18  2  0
 18 19  1  0
 19 20  2  0
  9 21  1  0
 21  5  2  0
 20 15  1  0
  1 22  1  0
  1 23  1  0
  1 24  1  0
  6 25  1  0
  7 26  1  0
  8 27  1  0
 10 28  1  0
 10 29  1  0
 11 30  1  0
 11 31  1  0
 12 32  1  1
 13 33  1  0
 13 34  1  0
 13 35  1  0
 14 36  1  0
 14 37  1  0
 16 38  1  0
 17 39  1  0
 18 40  1  0
 19 41  1  0
 20 42  1  0
 21 43  1  0
M  CHG  1  12   1
M  END
>  <meeko>  (20) 
{"is_sidechain": [false], "free_energy": -5.86, "intermolecular_energy": -10.63, "internal_energy": -0.157}

$$$$
