seed-5302
     RDKit          3D

 43 44  0  0  0  0  0  0  0  0999 V2000
  134.3880  124.8510  118.5250 C   0  0  0  0  0  0  0  0  0  0  0  0
  134.8830  125.0070  119.8580 O   0  0  0  0  0  0  0  0  0  0  0  0
  135.4620  123.8880  120.3600 C   0  0  0  0  0  0  0  0  0  0  0  0
  135.6790  122.8560  119.7470 O   0  0  0  0  0  0  0  0  0  0  0  0
  135.7880  124.0690  121.8010 C   0  0  0  0  0  0  0  0  0  0  0  0
  136.0580  125.3640  122.2590 C   0  0  0  0  0  0  0  0  0  0  0  0
  136.3670  125.5860  123.6010 C   0  0  0  0  0  0  0  0  0  0  0  0
  136.4180  124.5160  124.4940 C   0  0  0  0  0  0  0  0  0  0  0  0
  136.1670  123.2100  124.0540 C   0  0  0  0  0  0  0  0  0  0  0  0
  136.2700  122.0470  125.0140 C   0  0  0  0  0  0  0  0  0  0  0  0
  134.9720  121.2290  125.1090 C   0  0  0  0  0  0  0  0  0  0  0  0
  134.3240  121.3390  126.4780 N   0  0  1  0  0  0  0  0  0  0  0  0
  135.1560  122.1130  127.4640 C   0  0  0  0  0  0  0  0  0  0  0  0
  132.9040  121.8640  126.3870 C   0  0  0  0  0  0  0  0  0  0  0  0
  132.7940  123.1160  125.5610 C   0  0  0  0  0  0  0  0  0  0  0  0
  133.1010  124.3670  126.1220 C   0  0  0  0  0  0  0  0  0  0  0  0
  133.0250  125.5260  125.3490 C   0  0  0  0  0  0  0  0  0  0  0  0
  132.6420  125.4490  124.0130 C   0  0  0  0  0  0  0  0  0  0  0  0
  132.3290  124.2150  123.4460 C   0  0  0  0  0  0  0  0  0  0  0  0
  132.4030  123.0530  124.2150 C   0  0  0  0  0  0  0  0  0  0  0  0
  135.8410  122.9950  122.7040 C   0  0  0  0  0  0  0  0  0  0  0  0
  133.3394  124.5205  118.5596 H   0  0  0  0  0  0  0  0  0  0  0  0
  134.4520  125.8129  117.9952 H   0  0  0  0  0  0  0  0  0  0  0  0
  134.9920  124.0997  117.9952 H   0  0  0  0  0  0  0  0  0  0  0  0
  136.0263  126.2105  121.5573 H   0  0  0  0  0  0  0  0  0  0  0  0
  136.5709  126.6071  123.9557 H   0  0  0  0  0  0  0  0  0  0  0  0
  136.6571  124.6990  125.5520 H   0  0  0  0  0  0  0  0  0  0  0  0
  137.0786  121.3830  124.6745 H   0  0  0  0  0  0  0  0  0  0  0  0
  136.4710  122.4619  126.0127 H   0  0  0  0  0  0  0  0  0  0  0  0
  134.2646  121.5976  124.3515 H   0  0  0  0  0  0  0  0  0  0  0  0
  135.2255  120.1722  124.9391 H   0  0  0  0  0  0  0  0  0  0  0  0
  134.2320  120.3860  126.8540 H   0  0  0  0  0  0  0  0  0  0  0  0
  134.8611  121.8387  128.4876 H   0  0  0  0  0  0  0  0  0  0  0  0
  136.2193  121.8755  127.3126 H   0  0  0  0  0  0  0  0  0  0  0  0
  134.9958  123.1907  127.3126 H   0  0  0  0  0  0  0  0  0  0  0  0
  132.2712  121.0873  125.9328 H   0  0  0  0  0  0  0  0  0  0  0  0
  132.5783  122.1127  127.4078 H   0  0  0  0  0  0  0  0  0  0  0  0
  133.4033  124.4331  127.1776 H   0  0  0  0  0  0  0  0  0  0  0  0
  133.2679  126.5014  125.7957 H   0  0  0  0  0  0  0  0  0  0  0  0
  132.5863  126.3633  123.4040 H   0  0  0  0  0  0  0  0  0  0  0  0
  132.0232  124.1569  122.3909 H   0  0  0  0  0  0  0  0  0  0  0  0
  132.1533  122.0817  123.7632 H   0  0  0  0  0  0  0  0  0  0  0  0
  135.6253  121.9756  122.3514 H   0  0  0  0  0  0  0  0  0  0  0  0
  1  2  1  0
  2  3  1  0
  3  4  2  0
  3  5  1  0
  5  6  1  0
  6  7  2  0
  7  8  1  0
  8  9  2  0
  9 10  1  0
 10 11  1  0
 11 12  1  0
 12 13  1  0
 12 14  1  0
 14 15  1  0
 15 16  2  0
 16 17  1  0
 17 18  2  0
 18 19  1  0
 19 20  2  0
  9 21  1  0
 21  5  2  0
 20 15  1  0
  1 22  1  0
  1 23  1  0
  1 24  1  0
  6 25  1  0
  7 26  1  0
  8 27  1  0
 10 28  1  0
 10 29  1  0
 11 30  1  0
 11 31  1  0
 12 32  1  1
 13 33  1  0
 13 34  1  0
 13 35  1  0
 14 36  1  0
 14 37  1  0
 16 38  1  0
 17 39  1  0
 18 40  1  0
 19 41  1  0
 20 42  1  0
 21 43  1  0
M  CHG  1  12   1
M  END
>  <meeko>  (1) 
{"is_sidechain": [false], "free_energy": -7.601, "intermolecular_energy": -10.711, "internal_energy": -2.099}

$$$$
seed-5302
     RDKit          3D

 43 44  0  0  0  0  0  0  0  0999 V2000
  136.4580  127.6260  125.2640 C   0  0  0  0  0  0  0  0  0  0  0  0
  137.1180  126.7570  124.3390 O   0  0  0  0  0  0  0  0  0  0  0  0
  136.3470  126.3950  123.2840 C   0  0  0  0  0  0  0  0  0  0  0  0
  135.8920  127.1450  122.4360 O   0  0  0  0  0  0  0  0  0  0  0  0
  136.0940  124.9280  123.3000 C   0  0  0  0  0  0  0  0  0  0  0  0
  135.6360  124.3240  122.1240 C   0  0  0  0  0  0  0  0  0  0  0  0
  135.3860  122.9520  122.0870 C   0  0  0  0  0  0  0  0  0  0  0  0
  135.5820  122.1740  123.2290 C   0  0  0  0  0  0  0  0  0  0  0  0
  136.0240  122.7610  124.4210 C   0  0  0  0  0  0  0  0  0  0  0  0
  136.1910  121.9240  125.6690 C   0  0  0  0  0  0  0  0  0  0  0  0
  135.1800  122.2790  126.7710 C   0  0  0  0  0  0  0  0  0  0  0  0
  133.7440  122.1870  126.2830 N   0  0  1  0  0  0  0  0  0  0  0  0
  133.0030  121.0070  126.8500 C   0  0  0  0  0  0  0  0  0  0  0  0
  132.9950  123.4900  126.4920 C   0  0  0  0  0  0  0  0  0  0  0  0
  132.7050  124.2110  125.2040 C   0  0  0  0  0  0  0  0  0  0  0  0
  132.9300  125.5940  125.0970 C   0  0  0  0  0  0  0  0  0  0  0  0
  132.6850  126.2590  123.8950 C   0  0  0  0  0  0  0  0  0  0  0  0
  132.2140  125.5530  122.7920 C   0  0  0  0  0  0  0  0  0  0  0  0
  131.9800  124.1830  122.8860 C   0  0  0  0  0  0  0  0  0  0  0  0
  132.2230  123.5130  124.0860 C   0  0  0  0  0  0  0  0  0  0  0  0
  136.2900  124.1410  124.4460 C   0  0  0  0  0  0  0  0  0  0  0  0
  136.6944  127.3147  126.2922 H   0  0  0  0  0  0  0  0  0  0  0  0
  136.8013  128.6590  125.1055 H   0  0  0  0  0  0  0  0  0  0  0  0
  135.3708  127.5725  125.1055 H   0  0  0  0  0  0  0  0  0  0  0  0
  135.4721  124.9343  121.2236 H   0  0  0  0  0  0  0  0  0  0  0  0
  135.0339  122.4828  121.1565 H   0  0  0  0  0  0  0  0  0  0  0  0
  135.3879  121.0919  123.1924 H   0  0  0  0  0  0  0  0  0  0  0  0
  136.0597  120.8653  125.4010 H   0  0  0  0  0  0  0  0  0  0  0  0
  137.1961  122.1255  126.0678 H   0  0  0  0  0  0  0  0  0  0  0  0
  135.3137  121.5829  127.6121 H   0  0  0  0  0  0  0  0  0  0  0  0
  135.3665  123.3185  127.0785 H   0  0  0  0  0  0  0  0  0  0  0  0
  133.7720  122.0560  125.2640 H   0  0  0  0  0  0  0  0  0  0  0  0
  133.0303  121.0504  127.9488 H   0  0  0  0  0  0  0  0  0  0  0  0
  131.9578  121.0315  126.5079 H   0  0  0  0  0  0  0  0  0  0  0  0
  133.4791  120.0762  126.5079 H   0  0  0  0  0  0  0  0  0  0  0  0
  132.0411  123.2700  126.9937 H   0  0  0  0  0  0  0  0  0  0  0  0
  133.6356  124.1453  127.1004 H   0  0  0  0  0  0  0  0  0  0  0  0
  133.3017  126.1560  125.9665 H   0  0  0  0  0  0  0  0  0  0  0  0
  132.8642  127.3417  123.8192 H   0  0  0  0  0  0  0  0  0  0  0  0
  132.0261  126.0780  121.8438 H   0  0  0  0  0  0  0  0  0  0  0  0
  131.6033  123.6287  122.0137 H   0  0  0  0  0  0  0  0  0  0  0  0
  132.0356  122.4313  124.1559 H   0  0  0  0  0  0  0  0  0  0  0  0
  136.6552  124.6088  125.3722 H   0  0  0  0  0  0  0  0  0  0  0  0
  1  2  1  0
  2  3  1  0
  3  4  2  0
  3  5  1  0
  5  6  1  0
  6  7  2  0
  7  8  1  0
  8  9  2  0
  9 10  1  0
 10 11  1  0
 11 12  1  0
 12 13  1  0
 12 14  1  0
 14 15  1  0
 15 16  2  0
 16 17  1  0
 17 18  2  0
 18 19  1  0
 19 20  2  0
  9 21  1  0
 21  5  2  0
 20 15  1  0
  1 22  1  0
  1 23  1  0
  1 24  1  0
  6 25  1  0
  7 26  1  0
  8 27  1  0
 10 28  1  0
 10 29  1  0
 11 30  1  0
 11 31  1  0
 12 32  1  6
 13 33  1  0
 13 34  1  0
 13 35  1  0
 14 36  1  0
 14 37  1  0
 16 38  1  0
 17 39  1  0
 18 40  1  0
 19 41  1  0
 20 42  1  0
 21 43  1  0
M  CHG  1  12   1
M  END
>  <meeko>  (2) 
{"is_sidechain": [false], "free_energy": -7.513, "intermolecular_energy": -10.114, "internal_energy": -2.574}

$$$$
seed-5302
     RDKit          3D

 43 44  0  0  0  0  0  0  0  0999 V2000
  135.1010  122.3520  115.9520 C   0  0  0  0  0  0  0  0  0  0  0  0
  134.9000  122.4980  117.3610 O   0  0  0  0  0  0  0  0  0  0  0  0
  134.3860  123.7020  117.7170 C   0  0  0  0  0  0  0  0  0  0  0  0
  133.6540  124.4000  117.0360 O   0  0  0  0  0  0  0  0  0  0  0  0
  134.8600  124.0910  119.0740 C   0  0  0  0  0  0  0  0  0  0  0  0
  135.9520  123.4030  119.6140 C   0  0  0  0  0  0  0  0  0  0  0  0
  136.4350  123.7320  120.8810 C   0  0  0  0  0  0  0  0  0  0  0  0
  135.8240  124.7430  121.6230 C   0  0  0  0  0  0  0  0  0  0  0  0
  134.7190  125.4330  121.1080 C   0  0  0  0  0  0  0  0  0  0  0  0
  134.0290  126.4960  121.9320 C   0  0  0  0  0  0  0  0  0  0  0  0
  132.7890  125.9730  122.6740 C   0  0  0  0  0  0  0  0  0  0  0  0
  133.1530  125.2550  123.9630 N   0  0  1  0  0  0  0  0  0  0  0  0
  132.6900  125.9850  125.1940 C   0  0  0  0  0  0  0  0  0  0  0  0
  132.6980  123.8080  123.9470 C   0  0  0  0  0  0  0  0  0  0  0  0
  133.6570  122.8860  124.6490 C   0  0  0  0  0  0  0  0  0  0  0  0
  133.2950  122.2720  125.8600 C   0  0  0  0  0  0  0  0  0  0  0  0
  134.1740  121.3960  126.4990 C   0  0  0  0  0  0  0  0  0  0  0  0
  135.4190  121.1260  125.9380 C   0  0  0  0  0  0  0  0  0  0  0  0
  135.7930  121.7330  124.7410 C   0  0  0  0  0  0  0  0  0  0  0  0
  134.9180  122.6100  124.0980 C   0  0  0  0  0  0  0  0  0  0  0  0
  134.2480  125.1090  119.8240 C   0  0  0  0  0  0  0  0  0  0  0  0
  135.9789  121.7143  115.7710 H   0  0  0  0  0  0  0  0  0  0  0  0
  134.2115  121.8880  115.5009 H   0  0  0  0  0  0  0  0  0  0  0  0
  135.2672  123.3414  115.5009 H   0  0  0  0  0  0  0  0  0  0  0  0
  136.4320  122.5989  119.0370 H   0  0  0  0  0  0  0  0  0  0  0  0
  137.2995  123.1929  121.2957 H   0  0  0  0  0  0  0  0  0  0  0  0
  136.2126  125.0002  122.6194 H   0  0  0  0  0  0  0  0  0  0  0  0
  134.7435  126.8828  122.6735 H   0  0  0  0  0  0  0  0  0  0  0  0
  133.6901  127.2799  121.2387 H   0  0  0  0  0  0  0  0  0  0  0  0
  132.1349  126.8240  122.9148 H   0  0  0  0  0  0  0  0  0  0  0  0
  132.2810  125.2517  122.0170 H   0  0  0  0  0  0  0  0  0  0  0  0
  134.1780  125.2120  124.0130 H   0  0  0  0  0  0  0  0  0  0  0  0
  133.0317  125.4462  126.0901 H   0  0  0  0  0  0  0  0  0  0  0  0
  133.1083  127.0024  125.1961 H   0  0  0  0  0  0  0  0  0  0  0  0
  131.5914  126.0403  125.1961 H   0  0  0  0  0  0  0  0  0  0  0  0
  131.7194  123.7421  124.4449 H   0  0  0  0  0  0  0  0  0  0  0  0
  132.6439  123.4902  122.8953 H   0  0  0  0  0  0  0  0  0  0  0  0
  132.3125  122.4831  126.3073 H   0  0  0  0  0  0  0  0  0  0  0  0
  133.8827  120.9188  127.4463 H   0  0  0  0  0  0  0  0  0  0  0  0
  136.1088  120.4321  126.4407 H   0  0  0  0  0  0  0  0  0  0  0  0
  136.7791  121.5208  124.3021 H   0  0  0  0  0  0  0  0  0  0  0  0
  135.2185  123.0877  123.1538 H   0  0  0  0  0  0  0  0  0  0  0  0
  133.3926  125.6574  119.4027 H   0  0  0  0  0  0  0  0  0  0  0  0
  1  2  1  0
  2  3  1  0
  3  4  2  0
  3  5  1  0
  5  6  1  0
  6  7  2  0
  7  8  1  0
  8  9  2  0
  9 10  1  0
 10 11  1  0
 11 12  1  0
 12 13  1  0
 12 14  1  0
 14 15  1  0
 15 16  2  0
 16 17  1  0
 17 18  2  0
 18 19  1  0
 19 20  2  0
  9 21  1  0
 21  5  2  0
 20 15  1  0
  1 22  1  0
  1 23  1  0
  1 24  1  0
  6 25  1  0
  7 26  1  0
  8 27  1  0
 10 28  1  0
 10 29  1  0
 11 30  1  0
 11 31  1  0
 12 32  1  1
 13 33  1  0
 13 34  1  0
 13 35  1  0
 14 36  1  0
 14 37  1  0
 16 38  1  0
 17 39  1  0
 18 40  1  0
 19 41  1  0
 20 42  1  0
 21 43  1  0
M  CHG  1  12   1
M  END
>  <meeko>  (3) 
{"is_sidechain": [false], "free_energy": -7.504, "intermolecular_energy": -11.75, "internal_energy": -0.923}

$$$$
seed-5302
     RDKit          3D

 43 44  0  0  0  0  0  0  0  0999 V2000
  130.1370  127.6870  128.3300 C   0  0  0  0  0  0  0  0  0  0  0  0
  130.5390  126.5230  127.6020 O   0  0  0  0  0  0  0  0  0  0  0  0
  131.4860  126.7680  126.6630 C   0  0  0  0  0  0  0  0  0  0  0  0
  132.1120  127.8060  126.5280 O   0  0  0  0  0  0  0  0  0  0  0  0
  131.6580  125.5860  125.7730 C   0  0  0  0  0  0  0  0  0  0  0  0
  131.4130  124.3160  126.3080 C   0  0  0  0  0  0  0  0  0  0  0  0
  131.5580  123.1780  125.5150 C   0  0  0  0  0  0  0  0  0  0  0  0
  131.9590  123.2980  124.1840 C   0  0  0  0  0  0  0  0  0  0  0  0
  132.2250  124.5580  123.6330 C   0  0  0  0  0  0  0  0  0  0  0  0
  132.7040  124.6820  122.2050 C   0  0  0  0  0  0  0  0  0  0  0  0
  134.2110  124.9650  122.0980 C   0  0  0  0  0  0  0  0  0  0  0  0
  135.0360  123.6890  122.1160 N   0  0  1  0  0  0  0  0  0  0  0  0
  135.6220  123.3480  120.7730 C   0  0  0  0  0  0  0  0  0  0  0  0
  136.0850  123.7130  123.2110 C   0  0  0  0  0  0  0  0  0  0  0  0
  135.6220  123.0520  124.4800 C   0  0  0  0  0  0  0  0  0  0  0  0
  135.4470  123.8070  125.6520 C   0  0  0  0  0  0  0  0  0  0  0  0
  134.9920  123.1990  126.8230 C   0  0  0  0  0  0  0  0  0  0  0  0
  134.7110  121.8360  126.8360 C   0  0  0  0  0  0  0  0  0  0  0  0
  134.8860  121.0740  125.6830 C   0  0  0  0  0  0  0  0  0  0  0  0
  135.3410  121.6780  124.5090 C   0  0  0  0  0  0  0  0  0  0  0  0
  132.0610  125.7020  124.4330 C   0  0  0  0  0  0  0  0  0  0  0  0
  130.2062  127.4865  129.4094 H   0  0  0  0  0  0  0  0  0  0  0  0
  130.7967  128.5280  128.0702 H   0  0  0  0  0  0  0  0  0  0  0  0
  129.0989  127.9416  128.0702 H   0  0  0  0  0  0  0  0  0  0  0  0
  131.1046  124.2150  127.3590 H   0  0  0  0  0  0  0  0  0  0  0  0
  131.3558  122.1837  125.9398 H   0  0  0  0  0  0  0  0  0  0  0  0
  132.0670  122.3966  123.5629 H   0  0  0  0  0  0  0  0  0  0  0  0
  132.4862  123.7405  121.6795 H   0  0  0  0  0  0  0  0  0  0  0  0
  132.1767  125.5359  121.7547 H   0  0  0  0  0  0  0  0  0  0  0  0
  134.4053  125.4995  121.1565 H   0  0  0  0  0  0  0  0  0  0  0  0
  134.5043  125.5697  122.9688 H   0  0  0  0  0  0  0  0  0  0  0  0
  134.4060  122.9170  122.3670 H   0  0  0  0  0  0  0  0  0  0  0  0
  136.5650  122.7992  120.9131 H   0  0  0  0  0  0  0  0  0  0  0  0
  134.9130  122.7214  120.2120 H   0  0  0  0  0  0  0  0  0  0  0  0
  135.8165  124.2740  120.2120 H   0  0  0  0  0  0  0  0  0  0  0  0
  136.9819  123.1888  122.8493 H   0  0  0  0  0  0  0  0  0  0  0  0
  136.2934  124.7674  123.4452 H   0  0  0  0  0  0  0  0  0  0  0  0
  135.6700  124.8841  125.6466 H   0  0  0  0  0  0  0  0  0  0  0  0
  134.8555  123.7973  127.7359 H   0  0  0  0  0  0  0  0  0  0  0  0
  134.3498  121.3591  127.7591 H   0  0  0  0  0  0  0  0  0  0  0  0
  134.6657  119.9964  125.6973 H   0  0  0  0  0  0  0  0  0  0  0  0
  135.4799  121.0725  123.6012 H   0  0  0  0  0  0  0  0  0  0  0  0
  132.2502  126.6976  124.0052 H   0  0  0  0  0  0  0  0  0  0  0  0
  1  2  1  0
  2  3  1  0
  3  4  2  0
  3  5  1  0
  5  6  1  0
  6  7  2  0
  7  8  1  0
  8  9  2  0
  9 10  1  0
 10 11  1  0
 11 12  1  0
 12 13  1  0
 12 14  1  0
 14 15  1  0
 15 16  2  0
 16 17  1  0
 17 18  2  0
 18 19  1  0
 19 20  2  0
  9 21  1  0
 21  5  2  0
 20 15  1  0
  1 22  1  0
  1 23  1  0
  1 24  1  0
  6 25  1  0
  7 26  1  0
  8 27  1  0
 10 28  1  0
 10 29  1  0
 11 30  1  0
 11 31  1  0
 12 32  1  1
 13 33  1  0
 13 34  1  0
 13 35  1  0
 14 36  1  0
 14 37  1  0
 16 38  1  0
 17 39  1  0
 18 40  1  0
 19 41  1  0
 20 42  1  0
 21 43  1  0
M  CHG  1  12   1
M  END
>  <meeko>  (4) 
{"is_sidechain": [false], "free_energy": -7.483, "intermolecular_energy": -10.467, "internal_energy": -2.178}

$$$$
seed-5302
     RDKit          3D

 43 44  0  0  0  0  0  0  0  0999 V2000
  133.6080  121.1950  126.7910 C   0  0  0  0  0  0  0  0  0  0  0  0
  132.5000  121.4900  125.9350 O   0  0  0  0  0  0  0  0  0  0  0  0
  131.7920  122.5820  126.3170 C   0  0  0  0  0  0  0  0  0  0  0  0
  130.9530  122.6210  127.2010 O   0  0  0  0  0  0  0  0  0  0  0  0
  132.1570  123.7600  125.4820 C   0  0  0  0  0  0  0  0  0  0  0  0
  132.4970  124.9510  126.1330 C   0  0  0  0  0  0  0  0  0  0  0  0
  132.8480  126.0810  125.3950 C   0  0  0  0  0  0  0  0  0  0  0  0
  132.8530  126.0340  124.0010 C   0  0  0  0  0  0  0  0  0  0  0  0
  132.5000  124.8570  123.3290 C   0  0  0  0  0  0  0  0  0  0  0  0
  132.4600  124.8220  121.8180 C   0  0  0  0  0  0  0  0  0  0  0  0
  133.5630  125.6730  121.1670 C   0  0  0  0  0  0  0  0  0  0  0  0
  134.5580  124.8270  120.3920 N   0  0  1  0  0  0  0  0  0  0  0  0
  134.5820  125.1440  118.9220 C   0  0  0  0  0  0  0  0  0  0  0  0
  135.9410  124.8760  121.0130 C   0  0  0  0  0  0  0  0  0  0  0  0
  135.9700  124.3430  122.4200 C   0  0  0  0  0  0  0  0  0  0  0  0
  135.7140  122.9840  122.6700 C   0  0  0  0  0  0  0  0  0  0  0  0
  135.7670  122.4840  123.9720 C   0  0  0  0  0  0  0  0  0  0  0  0
  136.0740  123.3320  125.0330 C   0  0  0  0  0  0  0  0  0  0  0  0
  136.3240  124.6820  124.7980 C   0  0  0  0  0  0  0  0  0  0  0  0
  136.2720  125.1880  123.4980 C   0  0  0  0  0  0  0  0  0  0  0  0
  132.1630  123.7170  124.0780 C   0  0  0  0  0  0  0  0  0  0  0  0
  133.2924  121.2790  127.8414 H   0  0  0  0  0  0  0  0  0  0  0  0
  133.9606  120.1717  126.5948 H   0  0  0  0  0  0  0  0  0  0  0  0
  134.4228  121.9075  126.5948 H   0  0  0  0  0  0  0  0  0  0  0  0
  132.4874  124.9962  127.2320 H   0  0  0  0  0  0  0  0  0  0  0  0
  133.1216  127.0117  125.9135 H   0  0  0  0  0  0  0  0  0  0  0  0
  133.1362  126.9276  123.4254 H   0  0  0  0  0  0  0  0  0  0  0  0
  132.5813  123.7796  121.4884 H   0  0  0  0  0  0  0  0  0  0  0  0
  131.4928  125.2423  121.5050 H   0  0  0  0  0  0  0  0  0  0  0  0
  133.0957  126.3912  120.4772 H   0  0  0  0  0  0  0  0  0  0  0  0
  134.1108  126.1877  121.9702 H   0  0  0  0  0  0  0  0  0  0  0  0
  134.2620  123.8460  120.4780 H   0  0  0  0  0  0  0  0  0  0  0  0
  134.6644  126.2320  118.7828 H   0  0  0  0  0  0  0  0  0  0  0  0
  135.4452  124.6481  118.4540 H   0  0  0  0  0  0  0  0  0  0  0  0
  133.6540  124.7837  118.4540 H   0  0  0  0  0  0  0  0  0  0  0  0
  136.6245  124.2746  120.3956 H   0  0  0  0  0  0  0  0  0  0  0  0
  136.2477  125.9316  121.0534 H   0  0  0  0  0  0  0  0  0  0  0  0
  135.4705  122.3106  121.8350 H   0  0  0  0  0  0  0  0  0  0  0  0
  135.5660  121.4190  124.1602 H   0  0  0  0  0  0  0  0  0  0  0  0
  136.1192  122.9353  126.0580 H   0  0  0  0  0  0  0  0  0  0  0  0
  136.5628  125.3505  125.6382 H   0  0  0  0  0  0  0  0  0  0  0  0
  136.4689  126.2552  123.3181 H   0  0  0  0  0  0  0  0  0  0  0  0
  131.9015  122.7824  123.5602 H   0  0  0  0  0  0  0  0  0  0  0  0
  1  2  1  0
  2  3  1  0
  3  4  2  0
  3  5  1  0
  5  6  1  0
  6  7  2  0
  7  8  1  0
  8  9  2  0
  9 10  1  0
 10 11  1  0
 11 12  1  0
 12 13  1  0
 12 14  1  0
 14 15  1  0
 15 16  2  0
 16 17  1  0
 17 18  2  0
 18 19  1  0
 19 20  2  0
  9 21  1  0
 21  5  2  0
 20 15  1  0
  1 22  1  0
  1 23  1  0
  1 24  1  0
  6 25  1  0
  7 26  1  0
  8 27  1  0
 10 28  1  0
 10 29  1  0
 11 30  1  0
 11 31  1  0
 12 32  1  6
 13 33  1  0
 13 34  1  0
 13 35  1  0
 14 36  1  0
 14 37  1  0
 16 38  1  0
 17 39  1  0
 18 40  1  0
 19 41  1  0
 20 42  1  0
 21 43  1  0
M  CHG  1  12   1
M  END
>  <meeko>  (5) 
{"is_sidechain": [false], "free_energy": -7.463, "intermolecular_energy": -10.203, "internal_energy": -2.413}

$$$$
seed-5302
     RDKit          3D

 43 44  0  0  0  0  0  0  0  0999 V2000
  134.5900  122.7620  116.7500 C   0  0  0  0  0  0  0  0  0  0  0  0
  135.3100  123.3290  117.8490 O   0  0  0  0  0  0  0  0  0  0  0  0
  134.7010  124.4080  118.4010 C   0  0  0  0  0  0  0  0  0  0  0  0
  134.2720  125.3770  117.7980 O   0  0  0  0  0  0  0  0  0  0  0  0
  134.6400  124.2720  119.8830 C   0  0  0  0  0  0  0  0  0  0  0  0
  135.3510  123.2250  120.4800 C   0  0  0  0  0  0  0  0  0  0  0  0
  135.3270  123.0560  121.8640 C   0  0  0  0  0  0  0  0  0  0  0  0
  134.5840  123.9250  122.6630 C   0  0  0  0  0  0  0  0  0  0  0  0
  133.8500  124.9690  122.0850 C   0  0  0  0  0  0  0  0  0  0  0  0
  133.0080  125.8810  122.9480 C   0  0  0  0  0  0  0  0  0  0  0  0
  132.2140  125.1250  124.0250 C   0  0  0  0  0  0  0  0  0  0  0  0
  132.6710  125.4810  125.4300 N   0  0  1  0  0  0  0  0  0  0  0  0
  131.9640  126.6840  125.9920 C   0  0  0  0  0  0  0  0  0  0  0  0
  132.6040  124.2870  126.3620 C   0  0  0  0  0  0  0  0  0  0  0  0
  133.6850  123.2760  126.0960 C   0  0  0  0  0  0  0  0  0  0  0  0
  133.3540  121.9720  125.6900 C   0  0  0  0  0  0  0  0  0  0  0  0
  134.3570  121.0410  125.4190 C   0  0  0  0  0  0  0  0  0  0  0  0
  135.6960  121.3990  125.5510 C   0  0  0  0  0  0  0  0  0  0  0  0
  136.0370  122.6870  125.9590 C   0  0  0  0  0  0  0  0  0  0  0  0
  135.0380  123.6220  126.2320 C   0  0  0  0  0  0  0  0  0  0  0  0
  133.8920  125.1440  120.6910 C   0  0  0  0  0  0  0  0  0  0  0  0
  133.7798  122.1239  117.1326 H   0  0  0  0  0  0  0  0  0  0  0  0
  134.1627  123.5687  116.1363 H   0  0  0  0  0  0  0  0  0  0  0  0
  135.2741  122.1575  116.1363 H   0  0  0  0  0  0  0  0  0  0  0  0
  135.9320  122.5316  119.8542 H   0  0  0  0  0  0  0  0  0  0  0  0
  135.8952  122.2356  122.3266 H   0  0  0  0  0  0  0  0  0  0  0  0
  134.5743  123.7897  123.7546 H   0  0  0  0  0  0  0  0  0  0  0  0
  133.6714  126.6043  123.4447 H   0  0  0  0  0  0  0  0  0  0  0  0
  132.2794  126.3765  122.2895 H   0  0  0  0  0  0  0  0  0  0  0  0
  131.1486  125.3793  123.9238 H   0  0  0  0  0  0  0  0  0  0  0  0
  132.3840  124.0484  123.8769 H   0  0  0  0  0  0  0  0  0  0  0  0
  133.6690  125.7230  125.3770 H   0  0  0  0  0  0  0  0  0  0  0  0
  131.9880  126.6432  127.0910 H   0  0  0  0  0  0  0  0  0  0  0  0
  132.4678  127.5993  125.6480 H   0  0  0  0  0  0  0  0  0  0  0  0
  130.9192  126.6892  125.6480 H   0  0  0  0  0  0  0  0  0  0  0  0
  132.7044  124.6440  127.3976 H   0  0  0  0  0  0  0  0  0  0  0  0
  131.6377  123.7896  126.1925 H   0  0  0  0  0  0  0  0  0  0  0  0
  132.2977  121.6836  125.5853 H   0  0  0  0  0  0  0  0  0  0  0  0
  134.0896  120.0226  125.1006 H   0  0  0  0  0  0  0  0  0  0  0  0
  136.4853  120.6645  125.3330 H   0  0  0  0  0  0  0  0  0  0  0  0
  137.0954  122.9670  126.0660 H   0  0  0  0  0  0  0  0  0  0  0  0
  135.3128  124.6367  126.5559 H   0  0  0  0  0  0  0  0  0  0  0  0
  133.3339  125.9715  120.2286 H   0  0  0  0  0  0  0  0  0  0  0  0
  1  2  1  0
  2  3  1  0
  3  4  2  0
  3  5  1  0
  5  6  1  0
  6  7  2  0
  7  8  1  0
  8  9  2  0
  9 10  1  0
 10 11  1  0
 11 12  1  0
 12 13  1  0
 12 14  1  0
 14 15  1  0
 15 16  2  0
 16 17  1  0
 17 18  2  0
 18 19  1  0
 19 20  2  0
  9 21  1  0
 21  5  2  0
 20 15  1  0
  1 22  1  0
  1 23  1  0
  1 24  1  0
  6 25  1  0
  7 26  1  0
  8 27  1  0
 10 28  1  0
 10 29  1  0
 11 30  1  0
 11 31  1  0
 12 32  1  6
 13 33  1  0
 13 34  1  0
 13 35  1  0
 14 36  1  0
 14 37  1  0
 16 38  1  0
 17 39  1  0
 18 40  1  0
 19 41  1  0
 20 42  1  0
 21 43  1  0
M  CHG  1  12   1
M  END
>  <meeko>  (6) 
{"is_sidechain": [false], "free_energy": -7.46, "intermolecular_energy": -11.25, "internal_energy": -1.362}

$$$$
seed-5302
     RDKit          3D

 43 44  0  0  0  0  0  0  0  0999 V2000
  130.3960  127.8140  128.3090 C   0  0  0  0  0  0  0  0  0  0  0  0
  130.4640  126.8930  127.2160 O   0  0  0  0  0  0  0  0  0  0  0  0
  131.5890  127.0140  126.4690 C   0  0  0  0  0  0  0  0  0  0  0  0
  132.2810  128.0140  126.3690 O   0  0  0  0  0  0  0  0  0  0  0  0
  131.8740  125.7440  125.7450 C   0  0  0  0  0  0  0  0  0  0  0  0
  131.9230  125.7790  124.3470 C   0  0  0  0  0  0  0  0  0  0  0  0
  132.1880  124.6170  123.6220 C   0  0  0  0  0  0  0  0  0  0  0  0
  132.3970  123.4090  124.2880 C   0  0  0  0  0  0  0  0  0  0  0  0
  132.3360  123.3480  125.6860 C   0  0  0  0  0  0  0  0  0  0  0  0
  132.5170  122.0300  126.4030 C   0  0  0  0  0  0  0  0  0  0  0  0
  133.8570  121.3490  126.0830 C   0  0  0  0  0  0  0  0  0  0  0  0
  135.0450  122.1980  126.5000 N   0  0  1  0  0  0  0  0  0  0  0  0
  135.5200  121.9010  127.8960 C   0  0  0  0  0  0  0  0  0  0  0  0
  136.1690  122.1300  125.4840 C   0  0  0  0  0  0  0  0  0  0  0  0
  135.9690  123.0700  124.3260 C   0  0  0  0  0  0  0  0  0  0  0  0
  136.0460  124.4600  124.5180 C   0  0  0  0  0  0  0  0  0  0  0  0
  135.8860  125.3310  123.4390 C   0  0  0  0  0  0  0  0  0  0  0  0
  135.6490  124.8250  122.1640 C   0  0  0  0  0  0  0  0  0  0  0  0
  135.5640  123.4490  121.9620 C   0  0  0  0  0  0  0  0  0  0  0  0
  135.7230  122.5740  123.0380 C   0  0  0  0  0  0  0  0  0  0  0  0
  132.0850  124.5260  126.4110 C   0  0  0  0  0  0  0  0  0  0  0  0
  130.4369  127.2600  129.2584 H   0  0  0  0  0  0  0  0  0  0  0  0
  131.2451  128.5112  128.2544 H   0  0  0  0  0  0  0  0  0  0  0  0
  129.4537  128.3789  128.2544 H   0  0  0  0  0  0  0  0  0  0  0  0
  131.7517  126.7276  123.8170 H   0  0  0  0  0  0  0  0  0  0  0  0
  132.2322  124.6532  122.5235 H   0  0  0  0  0  0  0  0  0  0  0  0
  132.6113  122.4975  123.7108 H   0  0  0  0  0  0  0  0  0  0  0  0
  132.4663  122.2112  127.4868 H   0  0  0  0  0  0  0  0  0  0  0  0
  131.7170  121.3574  126.0601 H   0  0  0  0  0  0  0  0  0  0  0  0
  133.9029  120.3885  126.6172 H   0  0  0  0  0  0  0  0  0  0  0  0
  133.9109  121.2039  124.9939 H   0  0  0  0  0  0  0  0  0  0  0  0
  134.7400  123.1800  126.4950 H   0  0  0  0  0  0  0  0  0  0  0  0
  134.8197  122.3389  128.6225 H   0  0  0  0  0  0  0  0  0  0  0  0
  135.5677  120.8119  128.0432 H   0  0  0  0  0  0  0  0  0  0  0  0
  136.5200  122.3350  128.0432 H   0  0  0  0  0  0  0  0  0  0  0  0
  137.1127  122.3882  125.9867 H   0  0  0  0  0  0  0  0  0  0  0  0
  136.1872  121.1072  125.0797 H   0  0  0  0  0  0  0  0  0  0  0  0
  136.2334  124.8638  125.5239 H   0  0  0  0  0  0  0  0  0  0  0  0
  135.9472  126.4180  123.5963 H   0  0  0  0  0  0  0  0  0  0  0  0
  135.5286  125.5129  121.3142 H   0  0  0  0  0  0  0  0  0  0  0  0
  135.3715  123.0521  120.9543 H   0  0  0  0  0  0  0  0  0  0  0  0
  135.6549  121.4884  122.8742 H   0  0  0  0  0  0  0  0  0  0  0  0
  132.0536  124.4933  127.5101 H   0  0  0  0  0  0  0  0  0  0  0  0
  1  2  1  0
  2  3  1  0
  3  4  2  0
  3  5  1  0
  5  6  1  0
  6  7  2  0
  7  8  1  0
  8  9  2  0
  9 10  1  0
 10 11  1  0
 11 12  1  0
 12 13  1  0
 12 14  1  0
 14 15  1  0
 15 16  2  0
 16 17  1  0
 17 18  2  0
 18 19  1  0
 19 20  2  0
  9 21  1  0
 21  5  2  0
 20 15  1  0
  1 22  1  0
  1 23  1  0
  1 24  1  0
  6 25  1  0
  7 26  1  0
  8 27  1  0
 10 28  1  0
 10 29  1  0
 11 30  1  0
 11 31  1  0
 12 32  1  1
 13 33  1  0
 13 34  1  0
 13 35  1  0
 14 36  1  0
 14 37  1  0
 16 38  1  0
 17 39  1  0
 18 40  1  0
 19 41  1  0
 20 42  1  0
 21 43  1  0
M  CHG  1  12   1
M  END
>  <meeko>  (7) 
{"is_sidechain": [false], "free_energy": -7.093, "intermolecular_energy": -10.11, "internal_energy": -1.985}

$$$$
seed-5302
     RDKit          3D

 43 44  0  0  0  0  0  0  0  0999 V2000
  132.7470  124.0480  116.5810 C   0  0  0  0  0  0  0  0  0  0  0  0
  133.7060  124.7250  117.3990 O   0  0  0  0  0  0  0  0  0  0  0  0
  134.7170  123.9290  117.8270 C   0  0  0  0  0  0  0  0  0  0  0  0
  135.3540  123.1460  117.1410 O   0  0  0  0  0  0  0  0  0  0  0  0
  134.9480  124.1140  119.2860 C   0  0  0  0  0  0  0  0  0  0  0  0
  135.9180  123.3200  119.9080 C   0  0  0  0  0  0  0  0  0  0  0  0
  136.1720  123.4570  121.2720 C   0  0  0  0  0  0  0  0  0  0  0  0
  135.4520  124.3820  122.0290 C   0  0  0  0  0  0  0  0  0  0  0  0
  134.4650  125.1750  121.4310 C   0  0  0  0  0  0  0  0  0  0  0  0
  133.6540  126.1430  122.2620 C   0  0  0  0  0  0  0  0  0  0  0  0
  133.8130  125.9170  123.7740 C   0  0  0  0  0  0  0  0  0  0  0  0
  132.5650  126.3120  124.5460 N   0  0  1  0  0  0  0  0  0  0  0  0
  131.3250  126.3260  123.6960 C   0  0  0  0  0  0  0  0  0  0  0  0
  132.3930  125.4760  125.8000 C   0  0  0  0  0  0  0  0  0  0  0  0
  131.3530  126.0290  126.7350 C   0  0  0  0  0  0  0  0  0  0  0  0
  131.4220  127.3660  127.1630 C   0  0  0  0  0  0  0  0  0  0  0  0
  130.4440  127.8880  128.0100 C   0  0  0  0  0  0  0  0  0  0  0  0
  129.3910  127.0840  128.4380 C   0  0  0  0  0  0  0  0  0  0  0  0
  129.3140  125.7550  128.0250 C   0  0  0  0  0  0  0  0  0  0  0  0
  130.2900  125.2280  127.1780 C   0  0  0  0  0  0  0  0  0  0  0  0
  134.2250  125.0440  120.0520 C   0  0  0  0  0  0  0  0  0  0  0  0
  132.0169  123.5326  117.2223 H   0  0  0  0  0  0  0  0  0  0  0  0
  132.2254  124.7792  115.9459 H   0  0  0  0  0  0  0  0  0  0  0  0
  133.2614  123.3117  115.9459 H   0  0  0  0  0  0  0  0  0  0  0  0
  136.4831  122.5838  119.3176 H   0  0  0  0  0  0  0  0  0  0  0  0
  136.9414  122.8347  121.7523 H   0  0  0  0  0  0  0  0  0  0  0  0
  135.6613  124.4890  123.1036 H   0  0  0  0  0  0  0  0  0  0  0  0
  133.9793  127.1666  122.0246 H   0  0  0  0  0  0  0  0  0  0  0  0
  132.5944  125.9808  122.0150 H   0  0  0  0  0  0  0  0  0  0  0  0
  134.0186  124.8514  123.9536 H   0  0  0  0  0  0  0  0  0  0  0  0
  134.6423  126.5485  124.1253 H   0  0  0  0  0  0  0  0  0  0  0  0
  132.7030  127.2730  124.8840 H   0  0  0  0  0  0  0  0  0  0  0  0
  130.4363  126.3360  124.3441 H   0  0  0  0  0  0  0  0  0  0  0  0
  131.3259  127.2242  123.0610 H   0  0  0  0  0  0  0  0  0  0  0  0
  131.3056  125.4280  123.0610 H   0  0  0  0  0  0  0  0  0  0  0  0
  132.0947  124.4590  125.5055 H   0  0  0  0  0  0  0  0  0  0  0  0
  133.3541  125.4825  126.3350 H   0  0  0  0  0  0  0  0  0  0  0  0
  132.2524  128.0049  126.8280 H   0  0  0  0  0  0  0  0  0  0  0  0
  130.5049  128.9356  128.3399 H   0  0  0  0  0  0  0  0  0  0  0  0
  128.6188  127.4982  129.1030 H   0  0  0  0  0  0  0  0  0  0  0  0
  128.4829  125.1207  128.3671 H   0  0  0  0  0  0  0  0  0  0  0  0
  130.2253  124.1782  126.8559 H   0  0  0  0  0  0  0  0  0  0  0  0
  133.4647  125.6750  119.5685 H   0  0  0  0  0  0  0  0  0  0  0  0
  1  2  1  0
  2  3  1  0
  3  4  2  0
  3  5  1  0
  5  6  1  0
  6  7  2  0
  7  8  1  0
  8  9  2  0
  9 10  1  0
 10 11  1  0
 11 12  1  0
 12 13  1  0
 12 14  1  0
 14 15  1  0
 15 16  2  0
 16 17  1  0
 17 18  2  0
 18 19  1  0
 19 20  2  0
  9 21  1  0
 21  5  2  0
 20 15  1  0
  1 22  1  0
  1 23  1  0
  1 24  1  0
  6 25  1  0
  7 26  1  0
  8 27  1  0
 10 28  1  0
 10 29  1  0
 11 30  1  0
 11 31  1  0
 12 32  1  1
 13 33  1  0
 13 34  1  0
 13 35  1  0
 14 36  1  0
 14 37  1  0
 16 38  1  0
 17 39  1  0
 18 40  1  0
 19 41  1  0
 20 42  1  0
 21 43  1  0
M  CHG  1  12   1
M  END
>  <meeko>  (8) 
{"is_sidechain": [false], "free_energy": -6.87, "intermolecular_energy": -11.358, "internal_energy": -0.422}

$$$$
seed-5302
     RDKit          3D

 43 44  0  0  0  0  0  0  0  0999 V2000
  135.2470  120.3080  116.9160 C   0  0  0  0  0  0  0  0  0  0  0  0
  134.4890  121.3500  117.5370 O   0  0  0  0  0  0  0  0  0  0  0  0
  134.8880  122.5980  117.1880 C   0  0  0  0  0  0  0  0  0  0  0  0
  135.2300  122.9570  116.0730 O   0  0  0  0  0  0  0  0  0  0  0  0
  134.8800  123.5000  118.3730 C   0  0  0  0  0  0  0  0  0  0  0  0
  134.2880  124.7610  118.2380 C   0  0  0  0  0  0  0  0  0  0  0  0
  134.2540  125.6420  119.3200 C   0  0  0  0  0  0  0  0  0  0  0  0
  134.8200  125.2740  120.5410 C   0  0  0  0  0  0  0  0  0  0  0  0
  135.4330  124.0230  120.6920 C   0  0  0  0  0  0  0  0  0  0  0  0
  136.0870  123.6460  122.0010 C   0  0  0  0  0  0  0  0  0  0  0  0
  136.4280  124.8630  122.8760 C   0  0  0  0  0  0  0  0  0  0  0  0
  136.2150  124.5840  124.3540 N   0  0  1  0  0  0  0  0  0  0  0  0
  137.1090  125.4030  125.2440 C   0  0  0  0  0  0  0  0  0  0  0  0
  134.7540  124.7020  124.7430 C   0  0  0  0  0  0  0  0  0  0  0  0
  134.1850  123.4180  125.2810 C   0  0  0  0  0  0  0  0  0  0  0  0
  134.9050  122.2170  125.1630 C   0  0  0  0  0  0  0  0  0  0  0  0
  134.3900  121.0300  125.6850 C   0  0  0  0  0  0  0  0  0  0  0  0
  133.1550  121.0290  126.3270 C   0  0  0  0  0  0  0  0  0  0  0  0
  132.4280  122.2110  126.4450 C   0  0  0  0  0  0  0  0  0  0  0  0
  132.9380  123.4010  125.9250 C   0  0  0  0  0  0  0  0  0  0  0  0
  135.4490  123.1340  119.6030 C   0  0  0  0  0  0  0  0  0  0  0  0
  135.7062  119.6768  117.6911 H   0  0  0  0  0  0  0  0  0  0  0  0
  134.5826  119.6946  116.2897 H   0  0  0  0  0  0  0  0  0  0  0  0
  136.0352  120.7513  116.2897 H   0  0  0  0  0  0  0  0  0  0  0  0
  133.8476  125.0590  117.2751 H   0  0  0  0  0  0  0  0  0  0  0  0
  133.7800  126.6285  119.2099 H   0  0  0  0  0  0  0  0  0  0  0  0
  134.7848  125.9710  121.3913 H   0  0  0  0  0  0  0  0  0  0  0  0
  135.4004  122.9937  122.5605 H   0  0  0  0  0  0  0  0  0  0  0  0
  137.0330  123.1384  121.7613 H   0  0  0  0  0  0  0  0  0  0  0  0
  137.4824  125.1314  122.7144 H   0  0  0  0  0  0  0  0  0  0  0  0
  135.7571  125.6855  122.5872 H   0  0  0  0  0  0  0  0  0  0  0  0
  136.4560  123.5980  124.5210 H   0  0  0  0  0  0  0  0  0  0  0  0
  136.8744  125.1881  126.2970 H   0  0  0  0  0  0  0  0  0  0  0  0
  138.1599  125.1477  125.0430 H   0  0  0  0  0  0  0  0  0  0  0  0
  136.9465  126.4722  125.0430 H   0  0  0  0  0  0  0  0  0  0  0  0
  134.6584  125.4790  125.5157 H   0  0  0  0  0  0  0  0  0  0  0  0
  134.1902  124.9568  123.8335 H   0  0  0  0  0  0  0  0  0  0  0  0
  135.8811  122.2127  124.6558 H   0  0  0  0  0  0  0  0  0  0  0  0
  134.9604  120.0943  125.5891 H   0  0  0  0  0  0  0  0  0  0  0  0
  132.7526  120.0931  126.7419 H   0  0  0  0  0  0  0  0  0  0  0  0
  131.4502  122.2064  126.9489 H   0  0  0  0  0  0  0  0  0  0  0  0
  132.3593  124.3316  126.0203 H   0  0  0  0  0  0  0  0  0  0  0  0
  135.9117  122.1424  119.7158 H   0  0  0  0  0  0  0  0  0  0  0  0
  1  2  1  0
  2  3  1  0
  3  4  2  0
  3  5  1  0
  5  6  1  0
  6  7  2  0
  7  8  1  0
  8  9  2  0
  9 10  1  0
 10 11  1  0
 11 12  1  0
 12 13  1  0
 12 14  1  0
 14 15  1  0
 15 16  2  0
 16 17  1  0
 17 18  2  0
 18 19  1  0
 19 20  2  0
  9 21  1  0
 21  5  2  0
 20 15  1  0
  1 22  1  0
  1 23  1  0
  1 24  1  0
  6 25  1  0
  7 26  1  0
  8 27  1  0
 10 28  1  0
 10 29  1  0
 11 30  1  0
 11 31  1  0
 12 32  1  6
 13 33  1  0
 13 34  1  0
 13 35  1  0
 14 36  1  0
 14 37  1  0
 16 38  1  0
 17 39  1  0
 18 40  1  0
 19 41  1  0
 20 42  1  0
 21 43  1  0
M  CHG  1  12   1
M  END
>  <meeko>  (9) 
{"is_sidechain": [false], "free_energy": -6.845, "intermolecular_energy": -11.03, "internal_energy": -0.715}

$$$$
seed-5302
     RDKit          3D

 43 44  0  0  0  0  0  0  0  0999 V2000
  135.1280  122.0650  116.1090 C   0  0  0  0  0  0  0  0  0  0  0  0
  135.4590  123.2820  116.7850 O   0  0  0  0  0  0  0  0  0  0  0  0
  134.4200  123.8310  117.4610 C   0  0  0  0  0  0  0  0  0  0  0  0
  133.3410  124.1480  116.9870 O   0  0  0  0  0  0  0  0  0  0  0  0
  134.7750  124.0300  118.8930 C   0  0  0  0  0  0  0  0  0  0  0  0
  135.6280  123.0990  119.4970 C   0  0  0  0  0  0  0  0  0  0  0  0
  135.9920  123.2420  120.8360 C   0  0  0  0  0  0  0  0  0  0  0  0
  135.4980  124.3100  121.5860 C   0  0  0  0  0  0  0  0  0  0  0  0
  134.6300  125.2440  121.0060 C   0  0  0  0  0  0  0  0  0  0  0  0
  134.0600  126.3730  121.8330 C   0  0  0  0  0  0  0  0  0  0  0  0
  134.3050  126.1990  123.3400 C   0  0  0  0  0  0  0  0  0  0  0  0
  133.0100  126.1890  124.1350 N   0  0  1  0  0  0  0  0  0  0  0  0
  131.8070  125.8560  123.2960 C   0  0  0  0  0  0  0  0  0  0  0  0
  133.1140  125.3110  125.3660 C   0  0  0  0  0  0  0  0  0  0  0  0
  131.8420  125.2760  126.1690 C   0  0  0  0  0  0  0  0  0  0  0  0
  131.2010  124.0540  126.4320 C   0  0  0  0  0  0  0  0  0  0  0  0
  130.0350  124.0180  127.1990 C   0  0  0  0  0  0  0  0  0  0  0  0
  129.4990  125.1980  127.7080 C   0  0  0  0  0  0  0  0  0  0  0  0
  130.1220  126.4170  127.4490 C   0  0  0  0  0  0  0  0  0  0  0  0
  131.2880  126.4580  126.6830 C   0  0  0  0  0  0  0  0  0  0  0  0
  134.2810  125.1030  119.6520 C   0  0  0  0  0  0  0  0  0  0  0  0
  134.9146  121.2804  116.8499 H   0  0  0  0  0  0  0  0  0  0  0  0
  134.2408  122.2253  115.4787 H   0  0  0  0  0  0  0  0  0  0  0  0
  135.9741  121.7538  115.4787 H   0  0  0  0  0  0  0  0  0  0  0  0
  136.0133  122.2503  118.9128 H   0  0  0  0  0  0  0  0  0  0  0  0
  136.6698  122.5114  121.3016 H   0  0  0  0  0  0  0  0  0  0  0  0
  135.7923  124.4192  122.6403 H   0  0  0  0  0  0  0  0  0  0  0  0
  134.5268  127.3148  121.5088 H   0  0  0  0  0  0  0  0  0  0  0  0
  132.9713  126.3777  121.6759 H   0  0  0  0  0  0  0  0  0  0  0  0
  134.8298  125.2466  123.5059 H   0  0  0  0  0  0  0  0  0  0  0  0
  134.9063  127.0530  123.6850 H   0  0  0  0  0  0  0  0  0  0  0  0
  132.8630  127.1400  124.4970 H   0  0  0  0  0  0  0  0  0  0  0  0
  130.9562  125.6205  123.9522 H   0  0  0  0  0  0  0  0  0  0  0  0
  131.5529  126.7176  122.6611 H   0  0  0  0  0  0  0  0  0  0  0  0
  132.0321  124.9864  122.6611 H   0  0  0  0  0  0  0  0  0  0  0  0
  133.3561  124.2865  125.0470 H   0  0  0  0  0  0  0  0  0  0  0  0
  133.8990  125.7356  126.0091 H   0  0  0  0  0  0  0  0  0  0  0  0
  131.6204  123.1195  126.0311 H   0  0  0  0  0  0  0  0  0  0  0  0
  129.5395  123.0570  127.4013 H   0  0  0  0  0  0  0  0  0  0  0  0
  128.5824  125.1677  128.3154 H   0  0  0  0  0  0  0  0  0  0  0  0
  129.6943  127.3483  127.8487 H   0  0  0  0  0  0  0  0  0  0  0  0
  131.7756  127.4231  126.4810 H   0  0  0  0  0  0  0  0  0  0  0  0
  133.6140  125.8408  119.1820 H   0  0  0  0  0  0  0  0  0  0  0  0
  1  2  1  0
  2  3  1  0
  3  4  2  0
  3  5  1  0
  5  6  1  0
  6  7  2  0
  7  8  1  0
  8  9  2  0
  9 10  1  0
 10 11  1  0
 11 12  1  0
 12 13  1  0
 12 14  1  0
 14 15  1  0
 15 16  2  0
 16 17  1  0
 17 18  2  0
 18 19  1  0
 19 20  2  0
  9 21  1  0
 21  5  2  0
 20 15  1  0
  1 22  1  0
  1 23  1  0
  1 24  1  0
  6 25  1  0
  7 26  1  0
  8 27  1  0
 10 28  1  0
 10 29  1  0
 11 30  1  0
 11 31  1  0
 12 32  1  1
 13 33  1  0
 13 34  1  0
 13 35  1  0
 14 36  1  0
 14 37  1  0
 16 38  1  0
 17 39  1  0
 18 40  1  0
 19 41  1  0
 20 42  1  0
 21 43  1  0
M  CHG  1  12   1
M  END
>  <meeko>  (10) 
{"is_sidechain": [false], "free_energy": -6.841, "intermolecular_energy": -11.406, "internal_energy": -0.334}

$$$$
seed-5302
     RDKit          3D

 43 44  0  0  0  0  0  0  0  0999 V2000
  134.7670  121.0940  117.9240 C   0  0  0  0  0  0  0  0  0  0  0  0
  135.5790  122.1310  118.4840 O   0  0  0  0  0  0  0  0  0  0  0  0
  135.0430  123.3700  118.3610 C   0  0  0  0  0  0  0  0  0  0  0  0
  134.7170  123.9120  117.3180 O   0  0  0  0  0  0  0  0  0  0  0  0
  134.9190  124.0200  119.6960 C   0  0  0  0  0  0  0  0  0  0  0  0
  134.1750  125.2020  119.7880 C   0  0  0  0  0  0  0  0  0  0  0  0
  134.0280  125.8470  121.0150 C   0  0  0  0  0  0  0  0  0  0  0  0
  134.6320  125.3240  122.1590 C   0  0  0  0  0  0  0  0  0  0  0  0
  135.3950  124.1510  122.0860 C   0  0  0  0  0  0  0  0  0  0  0  0
  136.0870  123.6120  123.3170 C   0  0  0  0  0  0  0  0  0  0  0  0
  135.5440  122.2450  123.7620 C   0  0  0  0  0  0  0  0  0  0  0  0
  135.2930  122.1870  125.2590 N   0  0  1  0  0  0  0  0  0  0  0  0
  136.3840  121.4780  126.0130 C   0  0  0  0  0  0  0  0  0  0  0  0
  134.9970  123.5600  125.8320 C   0  0  0  0  0  0  0  0  0  0  0  0
  133.5370  123.7710  126.1240 C   0  0  0  0  0  0  0  0  0  0  0  0
  132.9770  125.0580  126.0540 C   0  0  0  0  0  0  0  0  0  0  0  0
  131.6170  125.2510  126.2990 C   0  0  0  0  0  0  0  0  0  0  0  0
  130.8040  124.1650  126.6160 C   0  0  0  0  0  0  0  0  0  0  0  0
  131.3480  122.8850  126.6940 C   0  0  0  0  0  0  0  0  0  0  0  0
  132.7090  122.6860  126.4510 C   0  0  0  0  0  0  0  0  0  0  0  0
  135.5250  123.4970  120.8490 C   0  0  0  0  0  0  0  0  0  0  0  0
  134.3088  120.5088  118.7349 H   0  0  0  0  0  0  0  0  0  0  0  0
  133.9769  121.5418  117.3033 H   0  0  0  0  0  0  0  0  0  0  0  0
  135.3912  120.4344  117.3033 H   0  0  0  0  0  0  0  0  0  0  0  0
  133.7041  125.6239  118.8879 H   0  0  0  0  0  0  0  0  0  0  0  0
  133.4343  126.7706  121.0816 H   0  0  0  0  0  0  0  0  0  0  0  0
  134.5083  125.8360  123.1247 H   0  0  0  0  0  0  0  0  0  0  0  0
  137.1601  123.5085  123.0987 H   0  0  0  0  0  0  0  0  0  0  0  0
  135.9008  124.3221  124.1362 H   0  0  0  0  0  0  0  0  0  0  0  0
  134.5973  122.0517  123.2363 H   0  0  0  0  0  0  0  0  0  0  0  0
  136.3005  121.4850  123.5167 H   0  0  0  0  0  0  0  0  0  0  0  0
  134.4320  121.6450  125.4070 H   0  0  0  0  0  0  0  0  0  0  0  0
  136.2140  121.5885  127.0942 H   0  0  0  0  0  0  0  0  0  0  0  0
  136.3786  120.4104  125.7482 H   0  0  0  0  0  0  0  0  0  0  0  0
  137.3574  121.9165  125.7482 H   0  0  0  0  0  0  0  0  0  0  0  0
  135.5627  123.6790  126.7679 H   0  0  0  0  0  0  0  0  0  0  0  0
  135.2929  124.3031  125.0769 H   0  0  0  0  0  0  0  0  0  0  0  0
  133.6149  125.9187  125.8045 H   0  0  0  0  0  0  0  0  0  0  0  0
  131.1864  126.2616  126.2418 H   0  0  0  0  0  0  0  0  0  0  0  0
  129.7313  124.3185  126.8049 H   0  0  0  0  0  0  0  0  0  0  0  0
  130.7047  122.0295  126.9474 H   0  0  0  0  0  0  0  0  0  0  0  0
  133.1341  121.6736  126.5163 H   0  0  0  0  0  0  0  0  0  0  0  0
  136.1074  122.5661  120.7837 H   0  0  0  0  0  0  0  0  0  0  0  0
  1  2  1  0
  2  3  1  0
  3  4  2  0
  3  5  1  0
  5  6  1  0
  6  7  2  0
  7  8  1  0
  8  9  2  0
  9 10  1  0
 10 11  1  0
 11 12  1  0
 12 13  1  0
 12 14  1  0
 14 15  1  0
 15 16  2  0
 16 17  1  0
 17 18  2  0
 18 19  1  0
 19 20  2  0
  9 21  1  0
 21  5  2  0
 20 15  1  0
  1 22  1  0
  1 23  1  0
  1 24  1  0
  6 25  1  0
  7 26  1  0
  8 27  1  0
 10 28  1  0
 10 29  1  0
 11 30  1  0
 11 31  1  0
 12 32  1  6
 13 33  1  0
 13 34  1  0
 13 35  1  0
 14 36  1  0
 14 37  1  0
 16 38  1  0
 17 39  1  0
 18 40  1  0
 19 41  1  0
 20 42  1  0
 21 43  1  0
M  CHG  1  12   1
M  END
>  <meeko>  (11) 
{"is_sidechain": [false], "free_energy": -6.825, "intermolecular_energy": -10.868, "internal_energy": -0.85}

$$$$
seed-5302
     RDKit          3D

 43 44  0  0  0  0  0  0  0  0999 V2000
  131.8640  128.8880  128.9710 C   0  0  0  0  0  0  0  0  0  0  0  0
  131.7880  128.1870  127.7260 O   0  0  0  0  0  0  0  0  0  0  0  0
  130.5320  127.7940  127.3970 C   0  0  0  0  0  0  0  0  0  0  0  0
  129.5700  128.5260  127.2340 O   0  0  0  0  0  0  0  0  0  0  0  0
  130.4630  126.3110  127.2790 C   0  0  0  0  0  0  0  0  0  0  0  0
  129.3130  125.6650  127.7460 C   0  0  0  0  0  0  0  0  0  0  0  0
  129.1990  124.2780  127.6570 C   0  0  0  0  0  0  0  0  0  0  0  0
  130.2370  123.5230  127.1090 C   0  0  0  0  0  0  0  0  0  0  0  0
  131.4040  124.1490  126.6510 C   0  0  0  0  0  0  0  0  0  0  0  0
  132.5470  123.3260  126.1010 C   0  0  0  0  0  0  0  0  0  0  0  0
  133.9230  123.9570  126.3620 C   0  0  0  0  0  0  0  0  0  0  0  0
  134.8760  123.7580  125.1950 N   0  0  1  0  0  0  0  0  0  0  0  0
  136.1480  123.0570  125.5860 C   0  0  0  0  0  0  0  0  0  0  0  0
  134.1910  123.0930  124.0180 C   0  0  0  0  0  0  0  0  0  0  0  0
  134.2360  123.9260  122.7660 C   0  0  0  0  0  0  0  0  0  0  0  0
  135.0520  123.5440  121.6870 C   0  0  0  0  0  0  0  0  0  0  0  0
  135.0750  124.3020  120.5160 C   0  0  0  0  0  0  0  0  0  0  0  0
  134.2880  125.4450  120.4100 C   0  0  0  0  0  0  0  0  0  0  0  0
  133.4790  125.8380  121.4750 C   0  0  0  0  0  0  0  0  0  0  0  0
  133.4530  125.0840  122.6490 C   0  0  0  0  0  0  0  0  0  0  0  0
  131.5060  125.5480  126.7290 C   0  0  0  0  0  0  0  0  0  0  0  0
  131.7862  128.1705  129.8011 H   0  0  0  0  0  0  0  0  0  0  0  0
  132.8250  129.4194  129.0345 H   0  0  0  0  0  0  0  0  0  0  0  0
  131.0392  129.6130  129.0345 H   0  0  0  0  0  0  0  0  0  0  0  0
  128.4947  126.2542  128.1856 H   0  0  0  0  0  0  0  0  0  0  0  0
  128.2888  123.7778  128.0196 H   0  0  0  0  0  0  0  0  0  0  0  0
  130.1384  122.4299  127.0362 H   0  0  0  0  0  0  0  0  0  0  0  0
  132.5221  122.3326  126.5728 H   0  0  0  0  0  0  0  0  0  0  0  0
  132.4143  123.2671  125.0106 H   0  0  0  0  0  0  0  0  0  0  0  0
  133.7916  125.0358  126.5322 H   0  0  0  0  0  0  0  0  0  0  0  0
  134.3596  123.4633  127.2427 H   0  0  0  0  0  0  0  0  0  0  0  0
  135.1460  124.6900  124.8550 H   0  0  0  0  0  0  0  0  0  0  0  0
  136.2220  123.0162  126.6828 H   0  0  0  0  0  0  0  0  0  0  0  0
  136.1426  122.0344  125.1806 H   0  0  0  0  0  0  0  0  0  0  0  0
  137.0096  123.6076  125.1806 H   0  0  0  0  0  0  0  0  0  0  0  0
  134.6895  122.1329  123.8187 H   0  0  0  0  0  0  0  0  0  0  0  0
  133.1328  122.9576  124.2860 H   0  0  0  0  0  0  0  0  0  0  0  0
  135.6763  122.6418  121.7664 H   0  0  0  0  0  0  0  0  0  0  0  0
  135.7157  123.9960  119.6758 H   0  0  0  0  0  0  0  0  0  0  0  0
  134.3044  126.0392  119.4844 H   0  0  0  0  0  0  0  0  0  0  0  0
  132.8604  126.7436  121.3899 H   0  0  0  0  0  0  0  0  0  0  0  0
  132.8148  125.3996  123.4875 H   0  0  0  0  0  0  0  0  0  0  0  0
  132.4108  126.0502  126.3560 H   0  0  0  0  0  0  0  0  0  0  0  0
  1  2  1  0
  2  3  1  0
  3  4  2  0
  3  5  1  0
  5  6  1  0
  6  7  2  0
  7  8  1  0
  8  9  2  0
  9 10  1  0
 10 11  1  0
 11 12  1  0
 12 13  1  0
 12 14  1  0
 14 15  1  0
 15 16  2  0
 16 17  1  0
 17 18  2  0
 18 19  1  0
 19 20  2  0
  9 21  1  0
 21  5  2  0
 20 15  1  0
  1 22  1  0
  1 23  1  0
  1 24  1  0
  6 25  1  0
  7 26  1  0
  8 27  1  0
 10 28  1  0
 10 29  1  0
 11 30  1  0
 11 31  1  0
 12 32  1  6
 13 33  1  0
 13 34  1  0
 13 35  1  0
 14 36  1  0
 14 37  1  0
 16 38  1  0
 17 39  1  0
 18 40  1  0
 19 41  1  0
 20 42  1  0
 21 43  1  0
M  CHG  1  12   1
M  END
>  <meeko>  (12) 
{"is_sidechain": [false], "free_energy": -6.814, "intermolecular_energy": -10.901, "internal_energy": -0.801}

$$$$
seed-5302
     RDKit          3D

 43 44  0  0  0  0  0  0  0  0999 V2000
  132.5360  124.1970  116.5450 C   0  0  0  0  0  0  0  0  0  0  0  0
  133.7940  124.4950  117.1580 O   0  0  0  0  0  0  0  0  0  0  0  0
  134.3980  123.4170  117.7160 C   0  0  0  0  0  0  0  0  0  0  0  0
  134.4320  122.2910  117.2480 O   0  0  0  0  0  0  0  0  0  0  0  0
  135.0130  123.7800  119.0230 C   0  0  0  0  0  0  0  0  0  0  0  0
  136.0630  122.9880  119.5010 C   0  0  0  0  0  0  0  0  0  0  0  0
  136.6740  123.2880  120.7180 C   0  0  0  0  0  0  0  0  0  0  0  0
  136.2340  124.3750  121.4730 C   0  0  0  0  0  0  0  0  0  0  0  0
  135.1730  125.1710  121.0210 C   0  0  0  0  0  0  0  0  0  0  0  0
  134.6680  126.3200  121.8630 C   0  0  0  0  0  0  0  0  0  0  0  0
  135.6890  126.7960  122.9080 C   0  0  0  0  0  0  0  0  0  0  0  0
  135.9570  125.7420  123.9690 N   0  0  1  0  0  0  0  0  0  0  0  0
  136.9660  126.1810  124.9950 C   0  0  0  0  0  0  0  0  0  0  0  0
  134.6730  125.2430  124.6030 C   0  0  0  0  0  0  0  0  0  0  0  0
  134.7730  123.8230  125.0900 C   0  0  0  0  0  0  0  0  0  0  0  0
  135.0100  122.7760  124.1830 C   0  0  0  0  0  0  0  0  0  0  0  0
  135.1290  121.4620  124.6370 C   0  0  0  0  0  0  0  0  0  0  0  0
  135.0110  121.1800  125.9950 C   0  0  0  0  0  0  0  0  0  0  0  0
  134.7690  122.2090  126.9040 C   0  0  0  0  0  0  0  0  0  0  0  0
  134.6500  123.5250  126.4550 C   0  0  0  0  0  0  0  0  0  0  0  0
  134.5740  124.8730  119.7860 C   0  0  0  0  0  0  0  0  0  0  0  0
  131.7813  124.0182  117.3250 H   0  0  0  0  0  0  0  0  0  0  0  0
  132.2228  125.0458  115.9194 H   0  0  0  0  0  0  0  0  0  0  0  0
  132.6368  123.2979  115.9194 H   0  0  0  0  0  0  0  0  0  0  0  0
  136.4082  122.1243  118.9137 H   0  0  0  0  0  0  0  0  0  0  0  0
  137.5046  122.6662  121.0833 H   0  0  0  0  0  0  0  0  0  0  0  0
  136.7233  124.6091  122.4300 H   0  0  0  0  0  0  0  0  0  0  0  0
  134.4290  127.1629  121.1978 H   0  0  0  0  0  0  0  0  0  0  0  0
  133.7826  125.9622  122.4089 H   0  0  0  0  0  0  0  0  0  0  0  0
  136.6341  127.0334  122.3976 H   0  0  0  0  0  0  0  0  0  0  0  0
  135.2717  127.6818  123.4093 H   0  0  0  0  0  0  0  0  0  0  0  0
  136.3570  124.9220  123.4950 H   0  0  0  0  0  0  0  0  0  0  0  0
  136.5634  126.0058  126.0036 H   0  0  0  0  0  0  0  0  0  0  0  0
  137.8945  125.6055  124.8658 H   0  0  0  0  0  0  0  0  0  0  0  0
  137.1779  127.2526  124.8658 H   0  0  0  0  0  0  0  0  0  0  0  0
  134.4290  125.8907  125.4579 H   0  0  0  0  0  0  0  0  0  0  0  0
  133.8906  125.2723  123.8303 H   0  0  0  0  0  0  0  0  0  0  0  0
  135.1022  122.9937  123.1087 H   0  0  0  0  0  0  0  0  0  0  0  0
  135.3162  120.6481  123.9211 H   0  0  0  0  0  0  0  0  0  0  0  0
  135.1088  120.1439  126.3514 H   0  0  0  0  0  0  0  0  0  0  0  0
  134.6718  121.9834  127.9762 H   0  0  0  0  0  0  0  0  0  0  0  0
  134.4586  124.3334  127.1760 H   0  0  0  0  0  0  0  0  0  0  0  0
  133.7527  125.5026  119.4132 H   0  0  0  0  0  0  0  0  0  0  0  0
  1  2  1  0
  2  3  1  0
  3  4  2  0
  3  5  1  0
  5  6  1  0
  6  7  2  0
  7  8  1  0
  8  9  2  0
  9 10  1  0
 10 11  1  0
 11 12  1  0
 12 13  1  0
 12 14  1  0
 14 15  1  0
 15 16  2  0
 16 17  1  0
 17 18  2  0
 18 19  1  0
 19 20  2  0
  9 21  1  0
 21  5  2  0
 20 15  1  0
  1 22  1  0
  1 23  1  0
  1 24  1  0
  6 25  1  0
  7 26  1  0
  8 27  1  0
 10 28  1  0
 10 29  1  0
 11 30  1  0
 11 31  1  0
 12 32  1  6
 13 33  1  0
 13 34  1  0
 13 35  1  0
 14 36  1  0
 14 37  1  0
 16 38  1  0
 17 39  1  0
 18 40  1  0
 19 41  1  0
 20 42  1  0
 21 43  1  0
M  CHG  1  12   1
M  END
>  <meeko>  (13) 
{"is_sidechain": [false], "free_energy": -6.804, "intermolecular_energy": -11.352, "internal_energy": -0.336}

$$$$
seed-5302
     RDKit          3D

 43 44  0  0  0  0  0  0  0  0999 V2000
  135.0160  121.9920  115.5200 C   0  0  0  0  0  0  0  0  0  0  0  0
  135.3470  122.7870  116.6630 O   0  0  0  0  0  0  0  0  0  0  0  0
  135.0700  122.1830  117.8460 C   0  0  0  0  0  0  0  0  0  0  0  0
  134.8640  120.9930  118.0130 O   0  0  0  0  0  0  0  0  0  0  0  0
  135.0250  123.1850  118.9460 C   0  0  0  0  0  0  0  0  0  0  0  0
  134.5360  124.4640  118.6540 C   0  0  0  0  0  0  0  0  0  0  0  0
  134.4710  125.4380  119.6510 C   0  0  0  0  0  0  0  0  0  0  0  0
  134.9040  125.1460  120.9450 C   0  0  0  0  0  0  0  0  0  0  0  0
  135.4120  123.8770  121.2540 C   0  0  0  0  0  0  0  0  0  0  0  0
  135.9230  123.5770  122.6450 C   0  0  0  0  0  0  0  0  0  0  0  0
  136.1170  124.8400  123.5000 C   0  0  0  0  0  0  0  0  0  0  0  0
  135.1830  124.8700  124.6980 N   0  0  1  0  0  0  0  0  0  0  0  0
  134.1820  125.9910  124.6360 C   0  0  0  0  0  0  0  0  0  0  0  0
  134.5260  123.5240  124.9330 C   0  0  0  0  0  0  0  0  0  0  0  0
  135.2390  122.6970  125.9680 C   0  0  0  0  0  0  0  0  0  0  0  0
  134.8700  122.7800  127.3210 C   0  0  0  0  0  0  0  0  0  0  0  0
  135.5120  121.9940  128.2780 C   0  0  0  0  0  0  0  0  0  0  0  0
  136.5270  121.1210  127.8960 C   0  0  0  0  0  0  0  0  0  0  0  0
  136.9070  121.0340  126.5580 C   0  0  0  0  0  0  0  0  0  0  0  0
  136.2670  121.8180  125.5970 C   0  0  0  0  0  0  0  0  0  0  0  0
  135.4590  122.8960  120.2500 C   0  0  0  0  0  0  0  0  0  0  0  0
  134.6128  121.0236  115.8512 H   0  0  0  0  0  0  0  0  0  0  0  0
  134.2612  122.5159  114.9151 H   0  0  0  0  0  0  0  0  0  0  0  0
  135.9195  121.8254  114.9151 H   0  0  0  0  0  0  0  0  0  0  0  0
  134.2014  124.7022  117.6336 H   0  0  0  0  0  0  0  0  0  0  0  0
  134.0776  126.4381  119.4164 H   0  0  0  0  0  0  0  0  0  0  0  0
  134.8462  125.9169  121.7276 H   0  0  0  0  0  0  0  0  0  0  0  0
  135.1996  122.9198  123.1498 H   0  0  0  0  0  0  0  0  0  0  0  0
  136.9076  123.0985  122.5373 H   0  0  0  0  0  0  0  0  0  0  0  0
  137.1561  124.8682  123.8599 H   0  0  0  0  0  0  0  0  0  0  0  0
  135.8880  125.7127  122.8708 H   0  0  0  0  0  0  0  0  0  0  0  0
  135.7590  125.0350  125.5340 H   0  0  0  0  0  0  0  0  0  0  0  0
  133.9095  126.2961  125.6571 H   0  0  0  0  0  0  0  0  0  0  0  0
  134.6222  126.8465  124.1028 H   0  0  0  0  0  0  0  0  0  0  0  0
  133.2823  125.6501  124.1028 H   0  0  0  0  0  0  0  0  0  0  0  0
  133.4922  123.6920  125.2693 H   0  0  0  0  0  0  0  0  0  0  0  0
  134.5628  122.9687  123.9842 H   0  0  0  0  0  0  0  0  0  0  0  0
  134.0695  123.4693  127.6277 H   0  0  0  0  0  0  0  0  0  0  0  0
  135.2161  122.0640  129.3351 H   0  0  0  0  0  0  0  0  0  0  0  0
  137.0297  120.4991  128.6513 H   0  0  0  0  0  0  0  0  0  0  0  0
  137.7122  120.3467  126.2591 H   0  0  0  0  0  0  0  0  0  0  0  0
  136.5707  121.7461  124.5422 H   0  0  0  0  0  0  0  0  0  0  0  0
  135.8394  121.8916  120.4873 H   0  0  0  0  0  0  0  0  0  0  0  0
  1  2  1  0
  2  3  1  0
  3  4  2  0
  3  5  1  0
  5  6  1  0
  6  7  2  0
  7  8  1  0
  8  9  2  0
  9 10  1  0
 10 11  1  0
 11 12  1  0
 12 13  1  0
 12 14  1  0
 14 15  1  0
 15 16  2  0
 16 17  1  0
 17 18  2  0
 18 19  1  0
 19 20  2  0
  9 21  1  0
 21  5  2  0
 20 15  1  0
  1 22  1  0
  1 23  1  0
  1 24  1  0
  6 25  1  0
  7 26  1  0
  8 27  1  0
 10 28  1  0
 10 29  1  0
 11 30  1  0
 11 31  1  0
 12 32  1  1
 13 33  1  0
 13 34  1  0
 13 35  1  0
 14 36  1  0
 14 37  1  0
 16 38  1  0
 17 39  1  0
 18 40  1  0
 19 41  1  0
 20 42  1  0
 21 43  1  0
M  CHG  1  12   1
M  END
>  <meeko>  (14) 
{"is_sidechain": [false], "free_energy": -6.783, "intermolecular_energy": -11.123, "internal_energy": -0.535}

$$$$
seed-5302
     RDKit          3D

 43 44  0  0  0  0  0  0  0  0999 V2000
  128.9300  128.6240  126.7310 C   0  0  0  0  0  0  0  0  0  0  0  0
  128.4990  127.2790  126.9620 O   0  0  0  0  0  0  0  0  0  0  0  0
  129.2500  126.6160  127.8760 C   0  0  0  0  0  0  0  0  0  0  0  0
  129.1660  126.7220  129.0880 O   0  0  0  0  0  0  0  0  0  0  0  0
  130.2370  125.7300  127.1970 C   0  0  0  0  0  0  0  0  0  0  0  0
  130.0800  124.3460  127.3270 C   0  0  0  0  0  0  0  0  0  0  0  0
  130.9770  123.4750  126.7080 C   0  0  0  0  0  0  0  0  0  0  0  0
  132.0440  123.9790  125.9650 C   0  0  0  0  0  0  0  0  0  0  0  0
  132.2290  125.3620  125.8360 C   0  0  0  0  0  0  0  0  0  0  0  0
  133.4130  125.9060  125.0700 C   0  0  0  0  0  0  0  0  0  0  0  0
  133.8720  124.9790  123.9330 C   0  0  0  0  0  0  0  0  0  0  0  0
  135.3220  125.2170  123.5490 N   0  0  1  0  0  0  0  0  0  0  0  0
  135.9030  126.4530  124.1790 C   0  0  0  0  0  0  0  0  0  0  0  0
  136.1770  123.9890  123.7980 C   0  0  0  0  0  0  0  0  0  0  0  0
  135.6390  123.1120  124.8950 C   0  0  0  0  0  0  0  0  0  0  0  0
  135.6980  123.5330  126.2350 C   0  0  0  0  0  0  0  0  0  0  0  0
  135.1750  122.7320  127.2500 C   0  0  0  0  0  0  0  0  0  0  0  0
  134.5910  121.5070  126.9410 C   0  0  0  0  0  0  0  0  0  0  0  0
  134.5320  121.0750  125.6180 C   0  0  0  0  0  0  0  0  0  0  0  0
  135.0540  121.8720  124.5980 C   0  0  0  0  0  0  0  0  0  0  0  0
  131.3130  126.2340  126.4480 C   0  0  0  0  0  0  0  0  0  0  0  0
  129.0915  129.1280  127.6953 H   0  0  0  0  0  0  0  0  0  0  0  0
  129.8702  128.6148  126.1601 H   0  0  0  0  0  0  0  0  0  0  0  0
  128.1596  129.1630  126.1601 H   0  0  0  0  0  0  0  0  0  0  0  0
  129.2457  123.9428  127.9198 H   0  0  0  0  0  0  0  0  0  0  0  0
  130.8422  122.3877  126.8063 H   0  0  0  0  0  0  0  0  0  0  0  0
  132.7452  123.2862  125.4768 H   0  0  0  0  0  0  0  0  0  0  0  0
  133.1339  126.8784  124.6380 H   0  0  0  0  0  0  0  0  0  0  0  0
  134.2495  125.9955  125.7787 H   0  0  0  0  0  0  0  0  0  0  0  0
  133.7588  123.9348  124.2597 H   0  0  0  0  0  0  0  0  0  0  0  0
  133.2497  125.1922  123.0513 H   0  0  0  0  0  0  0  0  0  0  0  0
  135.3530  125.3610  122.5320 H   0  0  0  0  0  0  0  0  0  0  0  0
  135.8598  126.3612  125.2743 H   0  0  0  0  0  0  0  0  0  0  0  0
  136.9499  126.5688  123.8617 H   0  0  0  0  0  0  0  0  0  0  0  0
  135.3242  127.3330  123.8617 H   0  0  0  0  0  0  0  0  0  0  0  0
  136.2242  123.4005  122.8699 H   0  0  0  0  0  0  0  0  0  0  0  0
  137.1713  124.3383  124.1132 H   0  0  0  0  0  0  0  0  0  0  0  0
  136.1594  124.4999  126.4845 H   0  0  0  0  0  0  0  0  0  0  0  0
  135.2241  123.0689  128.2960 H   0  0  0  0  0  0  0  0  0  0  0  0
  134.1754  120.8790  127.7428 H   0  0  0  0  0  0  0  0  0  0  0  0
  134.0735  120.1046  125.3769 H   0  0  0  0  0  0  0  0  0  0  0  0
  135.0064  121.5258  123.5550 H   0  0  0  0  0  0  0  0  0  0  0  0
  131.4397  127.3213  126.3396 H   0  0  0  0  0  0  0  0  0  0  0  0
  1  2  1  0
  2  3  1  0
  3  4  2  0
  3  5  1  0
  5  6  1  0
  6  7  2  0
  7  8  1  0
  8  9  2  0
  9 10  1  0
 10 11  1  0
 11 12  1  0
 12 13  1  0
 12 14  1  0
 14 15  1  0
 15 16  2  0
 16 17  1  0
 17 18  2  0
 18 19  1  0
 19 20  2  0
  9 21  1  0
 21  5  2  0
 20 15  1  0
  1 22  1  0
  1 23  1  0
  1 24  1  0
  6 25  1  0
  7 26  1  0
  8 27  1  0
 10 28  1  0
 10 29  1  0
 11 30  1  0
 11 31  1  0
 12 32  1  6
 13 33  1  0
 13 34  1  0
 13 35  1  0
 14 36  1  0
 14 37  1  0
 16 38  1  0
 17 39  1  0
 18 40  1  0
 19 41  1  0
 20 42  1  0
 21 43  1  0
M  CHG  1  12   1
M  END
>  <meeko>  (15) 
{"is_sidechain": [false], "free_energy": -6.653, "intermolecular_energy": -10.633, "internal_energy": -0.842}

$$$$
seed-5302
     RDKit          3D

 43 44  0  0  0  0  0  0  0  0999 V2000
  135.3090  122.0090  127.5020 C   0  0  0  0  0  0  0  0  0  0  0  0
  135.2640  121.4750  126.1760 O   0  0  0  0  0  0  0  0  0  0  0  0
  136.1980  122.0010  125.3440 C   0  0  0  0  0  0  0  0  0  0  0  0
  137.4060  121.9650  125.5070 O   0  0  0  0  0  0  0  0  0  0  0  0
  135.5470  122.6690  124.1840 C   0  0  0  0  0  0  0  0  0  0  0  0
  136.2650  122.7610  122.9860 C   0  0  0  0  0  0  0  0  0  0  0  0
  135.6990  123.3760  121.8700 C   0  0  0  0  0  0  0  0  0  0  0  0
  134.4140  123.9140  121.9440 C   0  0  0  0  0  0  0  0  0  0  0  0
  133.6830  123.8480  123.1370 C   0  0  0  0  0  0  0  0  0  0  0  0
  132.3100  124.4730  123.2290 C   0  0  0  0  0  0  0  0  0  0  0  0
  132.3330  126.0030  123.0780 C   0  0  0  0  0  0  0  0  0  0  0  0
  131.7240  126.7060  124.2790 N   0  0  1  0  0  0  0  0  0  0  0  0
  130.2230  126.7940  124.2110 C   0  0  0  0  0  0  0  0  0  0  0  0
  132.2060  126.1070  125.5860 C   0  0  0  0  0  0  0  0  0  0  0  0
  131.0790  125.7400  126.5130 C   0  0  0  0  0  0  0  0  0  0  0  0
  130.5140  126.7070  127.3620 C   0  0  0  0  0  0  0  0  0  0  0  0
  129.4520  126.3730  128.2040 C   0  0  0  0  0  0  0  0  0  0  0  0
  128.9460  125.0760  128.2070 C   0  0  0  0  0  0  0  0  0  0  0  0
  129.5020  124.1070  127.3750 C   0  0  0  0  0  0  0  0  0  0  0  0
  130.5640  124.4350  126.5310 C   0  0  0  0  0  0  0  0  0  0  0  0
  134.2530  123.2120  124.2530 C   0  0  0  0  0  0  0  0  0  0  0  0
  135.2398  121.1878  128.2305 H   0  0  0  0  0  0  0  0  0  0  0  0
  136.2559  122.5496  127.6477 H   0  0  0  0  0  0  0  0  0  0  0  0
  134.4659  122.7004  127.6477 H   0  0  0  0  0  0  0  0  0  0  0  0
  137.2817  122.3457  122.9246 H   0  0  0  0  0  0  0  0  0  0  0  0
  136.2666  123.4371  120.9297 H   0  0  0  0  0  0  0  0  0  0  0  0
  133.9714  124.3938  121.0586 H   0  0  0  0  0  0  0  0  0  0  0  0
  131.6794  124.0519  122.4321 H   0  0  0  0  0  0  0  0  0  0  0  0
  131.9133  124.2479  124.2300 H   0  0  0  0  0  0  0  0  0  0  0  0
  133.3765  126.3325  122.9659 H   0  0  0  0  0  0  0  0  0  0  0  0
  131.7340  126.2646  122.1933 H   0  0  0  0  0  0  0  0  0  0  0  0
  132.0760  127.6720  124.2820 H   0  0  0  0  0  0  0  0  0  0  0  0
  129.8106  126.8182  125.2305 H   0  0  0  0  0  0  0  0  0  0  0  0
  129.9333  127.7107  123.6764 H   0  0  0  0  0  0  0  0  0  0  0  0
  129.8282  125.9175  123.6764 H   0  0  0  0  0  0  0  0  0  0  0  0
  132.7867  125.1998  125.3632 H   0  0  0  0  0  0  0  0  0  0  0  0
  132.8157  126.8692  126.0933 H   0  0  0  0  0  0  0  0  0  0  0  0
  130.9110  127.7329  127.3630 H   0  0  0  0  0  0  0  0  0  0  0  0
  129.0145  127.1351  128.8656 H   0  0  0  0  0  0  0  0  0  0  0  0
  128.1057  124.8160  128.8675 H   0  0  0  0  0  0  0  0  0  0  0  0
  129.1034  123.0818  127.3832 H   0  0  0  0  0  0  0  0  0  0  0  0
  130.9998  123.6660  125.8762 H   0  0  0  0  0  0  0  0  0  0  0  0
  133.6806  123.1386  125.1895 H   0  0  0  0  0  0  0  0  0  0  0  0
  1  2  1  0
  2  3  1  0
  3  4  2  0
  3  5  1  0
  5  6  1  0
  6  7  2  0
  7  8  1  0
  8  9  2  0
  9 10  1  0
 10 11  1  0
 11 12  1  0
 12 13  1  0
 12 14  1  0
 14 15  1  0
 15 16  2  0
 16 17  1  0
 17 18  2  0
 18 19  1  0
 19 20  2  0
  9 21  1  0
 21  5  2  0
 20 15  1  0
  1 22  1  0
  1 23  1  0
  1 24  1  0
  6 25  1  0
  7 26  1  0
  8 27  1  0
 10 28  1  0
 10 29  1  0
 11 30  1  0
 11 31  1  0
 12 32  1  1
 13 33  1  0
 13 34  1  0
 13 35  1  0
 14 36  1  0
 14 37  1  0
 16 38  1  0
 17 39  1  0
 18 40  1  0
 19 41  1  0
 20 42  1  0
 21 43  1  0
M  CHG  1  12   1
M  END
>  <meeko>  (16) 
{"is_sidechain": [false], "free_energy": -6.448, "intermolecular_energy": -10.891, "internal_energy": -0.295}

$$$$
seed-5302
     RDKit          3D

 43 44  0  0  0  0  0  0  0  0999 V2000
  136.4210  127.4640  125.1140 C   0  0  0  0  0  0  0  0  0  0  0  0
  137.3290  126.5240  124.5330 O   0  0  0  0  0  0  0  0  0  0  0  0
  136.7770  125.3090  124.2930 C   0  0  0  0  0  0  0  0  0  0  0  0
  137.0170  124.2790  124.9010 O   0  0  0  0  0  0  0  0  0  0  0  0
  135.8310  125.3820  123.1450 C   0  0  0  0  0  0  0  0  0  0  0  0
  136.3420  125.7330  121.8910 C   0  0  0  0  0  0  0  0  0  0  0  0
  135.4970  125.8130  120.7840 C   0  0  0  0  0  0  0  0  0  0  0  0
  134.1330  125.5550  120.9230 C   0  0  0  0  0  0  0  0  0  0  0  0
  133.5980  125.2180  122.1730 C   0  0  0  0  0  0  0  0  0  0  0  0
  132.1140  124.9840  122.3310 C   0  0  0  0  0  0  0  0  0  0  0  0
  131.7480  124.3160  123.6670 C   0  0  0  0  0  0  0  0  0  0  0  0
  131.7160  125.3100  124.8150 N   0  0  1  0  0  0  0  0  0  0  0  0
  130.7420  126.4350  124.5940 C   0  0  0  0  0  0  0  0  0  0  0  0
  131.5050  124.6210  126.1490 C   0  0  0  0  0  0  0  0  0  0  0  0
  132.4980  123.5200  126.4040 C   0  0  0  0  0  0  0  0  0  0  0  0
  133.8500  123.8230  126.6370 C   0  0  0  0  0  0  0  0  0  0  0  0
  134.7670  122.8040  126.8990 C   0  0  0  0  0  0  0  0  0  0  0  0
  134.3460  121.4780  126.9280 C   0  0  0  0  0  0  0  0  0  0  0  0
  133.0090  121.1640  126.6920 C   0  0  0  0  0  0  0  0  0  0  0  0
  132.0880  122.1790  126.4300 C   0  0  0  0  0  0  0  0  0  0  0  0
  134.4580  125.1220  123.2810 C   0  0  0  0  0  0  0  0  0  0  0  0
  136.4809  127.4020  126.2106 H   0  0  0  0  0  0  0  0  0  0  0  0
  136.6879  128.4805  124.7891 H   0  0  0  0  0  0  0  0  0  0  0  0
  135.3959  127.2325  124.7891 H   0  0  0  0  0  0  0  0  0  0  0  0
  137.4150  125.9469  121.7773 H   0  0  0  0  0  0  0  0  0  0  0  0
  135.9072  126.0802  119.7989 H   0  0  0  0  0  0  0  0  0  0  0  0
  133.4731  125.6166  120.0450 H   0  0  0  0  0  0  0  0  0  0  0  0
  131.5983  125.9538  122.2715 H   0  0  0  0  0  0  0  0  0  0  0  0
  131.8018  124.3018  121.5266 H   0  0  0  0  0  0  0  0  0  0  0  0
  130.7548  123.8531  123.5713 H   0  0  0  0  0  0  0  0  0  0  0  0
  132.5195  123.5648  123.8918 H   0  0  0  0  0  0  0  0  0  0  0  0
  132.6490  125.7370  124.8800 H   0  0  0  0  0  0  0  0  0  0  0  0
  130.4049  126.8244  125.5660 H   0  0  0  0  0  0  0  0  0  0  0  0
  131.2335  127.2395  124.0272 H   0  0  0  0  0  0  0  0  0  0  0  0
  129.8755  126.0637  124.0272 H   0  0  0  0  0  0  0  0  0  0  0  0
  131.5984  125.3699  126.9493 H   0  0  0  0  0  0  0  0  0  0  0  0
  130.5044  124.1645  126.1296 H   0  0  0  0  0  0  0  0  0  0  0  0
  134.1878  124.8696  126.6128 H   0  0  0  0  0  0  0  0  0  0  0  0
  135.8234  123.0493  127.0827 H   0  0  0  0  0  0  0  0  0  0  0  0
  135.0696  120.6765  127.1375 H   0  0  0  0  0  0  0  0  0  0  0  0
  132.6793  120.1148  126.7123 H   0  0  0  0  0  0  0  0  0  0  0  0
  131.0340  121.9259  126.2427 H   0  0  0  0  0  0  0  0  0  0  0  0
  134.0514  124.8406  124.2636 H   0  0  0  0  0  0  0  0  0  0  0  0
  1  2  1  0
  2  3  1  0
  3  4  2  0
  3  5  1  0
  5  6  1  0
  6  7  2  0
  7  8  1  0
  8  9  2  0
  9 10  1  0
 10 11  1  0
 11 12  1  0
 12 13  1  0
 12 14  1  0
 14 15  1  0
 15 16  2  0
 16 17  1  0
 17 18  2  0
 18 19  1  0
 19 20  2  0
  9 21  1  0
 21  5  2  0
 20 15  1  0
  1 22  1  0
  1 23  1  0
  1 24  1  0
  6 25  1  0
  7 26  1  0
  8 27  1  0
 10 28  1  0
 10 29  1  0
 11 30  1  0
 11 31  1  0
 12 32  1  1
 13 33  1  0
 13 34  1  0
 13 35  1  0
 14 36  1  0
 14 37  1  0
 16 38  1  0
 17 39  1  0
 18 40  1  0
 19 41  1  0
 20 42  1  0
 21 43  1  0
M  CHG  1  12   1
M  END
>  <meeko>  (17) 
{"is_sidechain": [false], "free_energy": -6.431, "intermolecular_energy": -10.455, "internal_energy": -0.707}

$$$$
seed-5302
     RDKit          3D

 43 44  0  0  0  0  0  0  0  0999 V2000
  136.7750  121.4590  126.2060 C   0  0  0  0  0  0  0  0  0  0  0  0
  135.6250  122.1830  126.6540 O   0  0  0  0  0  0  0  0  0  0  0  0
  134.5170  121.9650  125.9030 C   0  0  0  0  0  0  0  0  0  0  0  0
  134.1050  120.8790  125.5300 O   0  0  0  0  0  0  0  0  0  0  0  0
  133.8560  123.2540  125.5600 C   0  0  0  0  0  0  0  0  0  0  0  0
  132.8820  123.7500  126.4340 C   0  0  0  0  0  0  0  0  0  0  0  0
  132.2350  124.9540  126.1570 C   0  0  0  0  0  0  0  0  0  0  0  0
  132.5480  125.6680  125.0000 C   0  0  0  0  0  0  0  0  0  0  0  0
  133.5080  125.1820  124.1040 C   0  0  0  0  0  0  0  0  0  0  0  0
  133.8120  125.9330  122.8280 C   0  0  0  0  0  0  0  0  0  0  0  0
  133.7910  125.0350  121.5810 C   0  0  0  0  0  0  0  0  0  0  0  0
  135.1470  124.9720  120.8970 N   0  0  1  0  0  0  0  0  0  0  0  0
  136.1710  125.8710  121.5340 C   0  0  0  0  0  0  0  0  0  0  0  0
  135.6410  123.5450  120.7590 C   0  0  0  0  0  0  0  0  0  0  0  0
  135.3260  122.9430  119.4160 C   0  0  0  0  0  0  0  0  0  0  0  0
  135.3420  121.5490  119.2410 C   0  0  0  0  0  0  0  0  0  0  0  0
  135.0250  120.9890  118.0030 C   0  0  0  0  0  0  0  0  0  0  0  0
  134.6910  121.8120  116.9310 C   0  0  0  0  0  0  0  0  0  0  0  0
  134.6770  123.1960  117.0900 C   0  0  0  0  0  0  0  0  0  0  0  0
  134.9940  123.7610  118.3260 C   0  0  0  0  0  0  0  0  0  0  0  0
  134.1680  123.9760  124.3960 C   0  0  0  0  0  0  0  0  0  0  0  0
  137.3445  121.1005  127.0761 H   0  0  0  0  0  0  0  0  0  0  0  0
  136.4538  120.5999  125.5987 H   0  0  0  0  0  0  0  0  0  0  0  0
  137.4108  122.1200  125.5987 H   0  0  0  0  0  0  0  0  0  0  0  0
  132.6255  123.1875  127.3438 H   0  0  0  0  0  0  0  0  0  0  0  0
  131.4760  125.3417  126.8525 H   0  0  0  0  0  0  0  0  0  0  0  0
  132.0371  126.6193  124.7902 H   0  0  0  0  0  0  0  0  0  0  0  0
  133.0605  126.7262  122.7010 H   0  0  0  0  0  0  0  0  0  0  0  0
  134.8293  126.3409  122.9216 H   0  0  0  0  0  0  0  0  0  0  0  0
  133.4980  124.0182  121.8814 H   0  0  0  0  0  0  0  0  0  0  0  0
  133.0720  125.4640  120.8675 H   0  0  0  0  0  0  0  0  0  0  0  0
  135.0210  125.3050  119.9320 H   0  0  0  0  0  0  0  0  0  0  0  0
  136.0906  125.8004  122.6288 H   0  0  0  0  0  0  0  0  0  0  0  0
  137.1782  125.5601  121.2195 H   0  0  0  0  0  0  0  0  0  0  0  0
  135.9931  126.9100  121.2195 H   0  0  0  0  0  0  0  0  0  0  0  0
  136.7318  123.5361  120.9004 H   0  0  0  0  0  0  0  0  0  0  0  0
  135.1244  122.9420  121.5202 H   0  0  0  0  0  0  0  0  0  0  0  0
  135.6061  120.8951  120.0852 H   0  0  0  0  0  0  0  0  0  0  0  0
  135.0390  119.8967  117.8740 H   0  0  0  0  0  0  0  0  0  0  0  0
  134.4377  121.3687  115.9567 H   0  0  0  0  0  0  0  0  0  0  0  0
  134.4158  123.8440  116.2404 H   0  0  0  0  0  0  0  0  0  0  0  0
  134.9835  124.8544  118.4462 H   0  0  0  0  0  0  0  0  0  0  0  0
  134.9357  123.5940  123.7070 H   0  0  0  0  0  0  0  0  0  0  0  0
  1  2  1  0
  2  3  1  0
  3  4  2  0
  3  5  1  0
  5  6  1  0
  6  7  2  0
  7  8  1  0
  8  9  2  0
  9 10  1  0
 10 11  1  0
 11 12  1  0
 12 13  1  0
 12 14  1  0
 14 15  1  0
 15 16  2  0
 16 17  1  0
 17 18  2  0
 18 19  1  0
 19 20  2  0
  9 21  1  0
 21  5  2  0
 20 15  1  0
  1 22  1  0
  1 23  1  0
  1 24  1  0
  6 25  1  0
  7 26  1  0
  8 27  1  0
 10 28  1  0
 10 29  1  0
 11 30  1  0
 11 31  1  0
 12 32  1  6
 13 33  1  0
 13 34  1  0
 13 35  1  0
 14 36  1  0
 14 37  1  0
 16 38  1  0
 17 39  1  0
 18 40  1  0
 19 41  1  0
 20 42  1  0
 21 43  1  0
M  CHG  1  12   1
M  END
>  <meeko>  (18) 
{"is_sidechain": [false], "free_energy": -6.406, "intermolecular_energy": -10.458, "internal_energy": -0.668}

$$$$
seed-5302
     RDKit          3D

 43 44  0  0  0  0  0  0  0  0999 V2000
  135.2840  121.2040  118.7780 C   0  0  0  0  0  0  0  0  0  0  0  0
  135.2900  122.6240  118.9510 O   0  0  0  0  0  0  0  0  0  0  0  0
  135.9820  123.0380  120.0410 C   0  0  0  0  0  0  0  0  0  0  0  0
  137.0110  122.5420  120.4690 O   0  0  0  0  0  0  0  0  0  0  0  0
  135.2990  124.1930  120.6860 C   0  0  0  0  0  0  0  0  0  0  0  0
  134.8530  125.2370  119.8680 C   0  0  0  0  0  0  0  0  0  0  0  0
  134.2060  126.3400  120.4240 C   0  0  0  0  0  0  0  0  0  0  0  0
  134.0080  126.4150  121.8030 C   0  0  0  0  0  0  0  0  0  0  0  0
  134.4620  125.3890  122.6420 C   0  0  0  0  0  0  0  0  0  0  0  0
  134.2890  125.4930  124.1400 C   0  0  0  0  0  0  0  0  0  0  0  0
  132.8240  125.3670  124.5870 C   0  0  0  0  0  0  0  0  0  0  0  0
  132.6950  125.2080  126.0930 N   0  0  1  0  0  0  0  0  0  0  0  0
  131.7380  126.1910  126.7090 C   0  0  0  0  0  0  0  0  0  0  0  0
  132.3780  123.7770  126.4820 C   0  0  0  0  0  0  0  0  0  0  0  0
  133.5480  122.8490  126.3020 C   0  0  0  0  0  0  0  0  0  0  0  0
  133.4370  121.7160  125.4780 C   0  0  0  0  0  0  0  0  0  0  0  0
  134.5300  120.8690  125.2900 C   0  0  0  0  0  0  0  0  0  0  0  0
  135.7400  121.1420  125.9220 C   0  0  0  0  0  0  0  0  0  0  0  0
  135.8620  122.2580  126.7470 C   0  0  0  0  0  0  0  0  0  0  0  0
  134.7720  123.1080  126.9380 C   0  0  0  0  0  0  0  0  0  0  0  0
  135.0980  124.2720  122.0740 C   0  0  0  0  0  0  0  0  0  0  0  0
  135.2819  120.7146  119.7631 H   0  0  0  0  0  0  0  0  0  0  0  0
  134.3846  120.9065  118.2189 H   0  0  0  0  0  0  0  0  0  0  0  0
  136.1809  120.8989  118.2189 H   0  0  0  0  0  0  0  0  0  0  0  0
  135.0136  125.1873  118.7809 H   0  0  0  0  0  0  0  0  0  0  0  0
  133.8508  127.1530  119.7737 H   0  0  0  0  0  0  0  0  0  0  0  0
  133.4920  127.2855  122.2343 H   0  0  0  0  0  0  0  0  0  0  0  0
  134.8708  124.6901  124.6163 H   0  0  0  0  0  0  0  0  0  0  0  0
  134.6400  126.4906  124.4426 H   0  0  0  0  0  0  0  0  0  0  0  0
  132.2804  126.2721  124.2785 H   0  0  0  0  0  0  0  0  0  0  0  0
  132.4031  124.4669  124.1151 H   0  0  0  0  0  0  0  0  0  0  0  0
  133.6180  125.3980  126.5030 H   0  0  0  0  0  0  0  0  0  0  0  0
  131.8010  126.1263  127.8053 H   0  0  0  0  0  0  0  0  0  0  0  0
  132.0000  127.2094  126.3861 H   0  0  0  0  0  0  0  0  0  0  0  0
  130.7130  125.9563  126.3861 H   0  0  0  0  0  0  0  0  0  0  0  0
  132.0755  123.7595  127.5394 H   0  0  0  0  0  0  0  0  0  0  0  0
  131.5728  123.4255  125.8201 H   0  0  0  0  0  0  0  0  0  0  0  0
  132.4824  121.4954  124.9780 H   0  0  0  0  0  0  0  0  0  0  0  0
  134.4354  119.9851  124.6421 H   0  0  0  0  0  0  0  0  0  0  0  0
  136.6015  120.4752  125.7697 H   0  0  0  0  0  0  0  0  0  0  0  0
  136.8182  122.4692  127.2481 H   0  0  0  0  0  0  0  0  0  0  0  0
  134.8728  123.9871  127.5915 H   0  0  0  0  0  0  0  0  0  0  0  0
  135.4415  123.4522  122.7221 H   0  0  0  0  0  0  0  0  0  0  0  0
  1  2  1  0
  2  3  1  0
  3  4  2  0
  3  5  1  0
  5  6  1  0
  6  7  2  0
  7  8  1  0
  8  9  2  0
  9 10  1  0
 10 11  1  0
 11 12  1  0
 12 13  1  0
 12 14  1  0
 14 15  1  0
 15 16  2  0
 16 17  1  0
 17 18  2  0
 18 19  1  0
 19 20  2  0
  9 21  1  0
 21  5  2  0
 20 15  1  0
  1 22  1  0
  1 23  1  0
  1 24  1  0
  6 25  1  0
  7 26  1  0
  8 27  1  0
 10 28  1  0
 10 29  1  0
 11 30  1  0
 11 31  1  0
 12 32  1  1
 13 33  1  0
 13 34  1  0
 13 35  1  0
 14 36  1  0
 14 37  1  0
 16 38  1  0
 17 39  1  0
 18 40  1  0
 19 41  1  0
 20 42  1  0
 21 43  1  0
M  CHG  1  12   1
M  END
>  <meeko>  (19) 
{"is_sidechain": [false], "free_energy": -6.379, "intermolecular_energy": -10.189, "internal_energy": -0.9}

$$$$
seed-5302
     RDKit          3D

 43 44  0  0  0  0  0  0  0  0999 V2000
  132.0480  125.1650  122.2410 C   0  0  0  0  0  0  0  0  0  0  0  0
  132.9150  126.1910  122.7320 O   0  0  0  0  0  0  0  0  0  0  0  0
  133.9620  126.4590  121.9120 C   0  0  0  0  0  0  0  0  0  0  0  0
  134.1740  127.5160  121.3410 O   0  0  0  0  0  0  0  0  0  0  0  0
  134.8340  125.2610  121.7700 C   0  0  0  0  0  0  0  0  0  0  0  0
  135.2180  124.8720  120.4820 C   0  0  0  0  0  0  0  0  0  0  0  0
  136.0360  123.7580  120.2960 C   0  0  0  0  0  0  0  0  0  0  0  0
  136.4700  123.0170  121.3960 C   0  0  0  0  0  0  0  0  0  0  0  0
  136.0840  123.3780  122.6930 C   0  0  0  0  0  0  0  0  0  0  0  0
  136.5160  122.5460  123.8790 C   0  0  0  0  0  0  0  0  0  0  0  0
  135.3770  121.6980  124.4660 C   0  0  0  0  0  0  0  0  0  0  0  0
  135.3920  121.6900  125.9850 N   0  0  1  0  0  0  0  0  0  0  0  0
  136.6360  121.0680  126.5590 C   0  0  0  0  0  0  0  0  0  0  0  0
  135.1230  123.0680  126.5570 C   0  0  0  0  0  0  0  0  0  0  0  0
  133.6790  123.4750  126.4500 C   0  0  0  0  0  0  0  0  0  0  0  0
  133.3350  124.7950  126.1130 C   0  0  0  0  0  0  0  0  0  0  0  0
  131.9960  125.1660  125.9890 C   0  0  0  0  0  0  0  0  0  0  0  0
  130.9890  124.2280  126.1990 C   0  0  0  0  0  0  0  0  0  0  0  0
  131.3170  122.9170  126.5400 C   0  0  0  0  0  0  0  0  0  0  0  0
  132.6550  122.5400  126.6660 C   0  0  0  0  0  0  0  0  0  0  0  0
  135.2730  124.5120  122.8740 C   0  0  0  0  0  0  0  0  0  0  0  0
  131.5959  124.6300  123.0892 H   0  0  0  0  0  0  0  0  0  0  0  0
  131.2546  125.6176  121.6281 H   0  0  0  0  0  0  0  0  0  0  0  0
  132.6266  124.4582  121.6281 H   0  0  0  0  0  0  0  0  0  0  0  0
  134.8726  125.4483  119.6110 H   0  0  0  0  0  0  0  0  0  0  0  0
  136.3396  123.4629  119.2807 H   0  0  0  0  0  0  0  0  0  0  0  0
  137.1201  122.1429  121.2433 H   0  0  0  0  0  0  0  0  0  0  0  0
  137.3247  121.8727  123.5586 H   0  0  0  0  0  0  0  0  0  0  0  0
  136.8466  123.2411  124.6649 H   0  0  0  0  0  0  0  0  0  0  0  0
  134.4161  122.1095  124.1233 H   0  0  0  0  0  0  0  0  0  0  0  0
  135.5146  120.6625  124.1214 H   0  0  0  0  0  0  0  0  0  0  0  0
  134.6020  121.1120  126.2990 H   0  0  0  0  0  0  0  0  0  0  0  0
  136.5853  121.0934  127.6575 H   0  0  0  0  0  0  0  0  0  0  0  0
  136.7144  120.0246  126.2195 H   0  0  0  0  0  0  0  0  0  0  0  0
  137.5178  121.6313  126.2195 H   0  0  0  0  0  0  0  0  0  0  0  0
  135.4102  123.0693  127.6188 H   0  0  0  0  0  0  0  0  0  0  0  0
  135.7131  123.7889  125.9722 H   0  0  0  0  0  0  0  0  0  0  0  0
  134.1265  125.5404  125.9459 H   0  0  0  0  0  0  0  0  0  0  0  0
  131.7354  126.2015  125.7248 H   0  0  0  0  0  0  0  0  0  0  0  0
  129.9340  124.5216  126.0958 H   0  0  0  0  0  0  0  0  0  0  0  0
  130.5200  122.1781  126.7101 H   0  0  0  0  0  0  0  0  0  0  0  0
  132.9082  121.5042  126.9361 H   0  0  0  0  0  0  0  0  0  0  0  0
  134.9795  124.8155  123.8898 H   0  0  0  0  0  0  0  0  0  0  0  0
  1  2  1  0
  2  3  1  0
  3  4  2  0
  3  5  1  0
  5  6  1  0
  6  7  2  0
  7  8  1  0
  8  9  2  0
  9 10  1  0
 10 11  1  0
 11 12  1  0
 12 13  1  0
 12 14  1  0
 14 15  1  0
 15 16  2  0
 16 17  1  0
 17 18  2  0
 18 19  1  0
 19 20  2  0
  9 21  1  0
 21  5  2  0
 20 15  1  0
  1 22  1  0
  1 23  1  0
  1 24  1  0
  6 25  1  0
  7 26  1  0
  8 27  1  0
 10 28  1  0
 10 29  1  0
 11 30  1  0
 11 31  1  0
 12 32  1  1
 13 33  1  0
 13 34  1  0
 13 35  1  0
 14 36  1  0
 14 37  1  0
 16 38  1  0
 17 39  1  0
 18 40  1  0
 19 41  1  0
 20 42  1  0
 21 43  1  0
M  CHG  1  12   1
M  END
>  <meeko>  (20) 
{"is_sidechain": [false], "free_energy": -6.286, "intermolecular_energy": -9.99, "internal_energy": -0.967}

$$$$
