seed-2401
     RDKit          3D

 45 48  0  0  0  0  0  0  0  0999 V2000
  133.2700  120.4260  126.1630 F   0  0  0  0  0  0  0  0  0  0  0  0
  133.9860  121.4990  125.8030 C   0  0  0  0  0  0  0  0  0  0  0  0
  135.0020  121.3610  124.8680 C   0  0  0  0  0  0  0  0  0  0  0  0
  135.7530  122.4770  124.4940 C   0  0  0  0  0  0  0  0  0  0  0  0
  135.4890  123.7390  125.0570 C   0  0  0  0  0  0  0  0  0  0  0  0
  136.2870  124.9720  124.6690 C   0  0  2  0  0  0  0  0  0  0  0  0
  137.2640  125.3130  125.8150 C   0  0  0  0  0  0  0  0  0  0  0  0
  138.1110  126.5290  125.4970 C   0  0  0  0  0  0  0  0  0  0  0  0
  137.2090  127.6710  125.1780 N   0  0  0  0  0  0  0  0  0  0  0  0
  136.3180  127.4200  124.0100 C   0  0  0  0  0  0  0  0  0  0  0  0
  135.4230  126.2060  124.2740 C   0  0  1  0  0  0  0  0  0  0  0  0
  134.5710  125.9690  123.0050 C   0  0  0  0  0  0  0  0  0  0  0  0
  135.2970  126.1990  121.8060 O   0  0  0  0  0  0  0  0  0  0  0  0
  135.1970  125.3010  120.7790 C   0  0  0  0  0  0  0  0  0  0  0  0
  135.8630  124.0810  121.0150 C   0  0  0  0  0  0  0  0  0  0  0  0
  135.8440  123.0480  120.0740 C   0  0  0  0  0  0  0  0  0  0  0  0
  135.1520  123.2690  118.9050 C   0  0  0  0  0  0  0  0  0  0  0  0
  134.5060  124.4580  118.6670 C   0  0  0  0  0  0  0  0  0  0  0  0
  134.5110  125.4950  119.5790 C   0  0  0  0  0  0  0  0  0  0  0  0
  133.8800  124.4750  117.4580 O   0  0  0  0  0  0  0  0  0  0  0  0
  134.2420  123.1710  116.9470 C   0  0  0  0  0  0  0  0  0  0  0  0
  135.0180  122.3900  117.8790 O   0  0  0  0  0  0  0  0  0  0  0  0
  134.4500  123.8530  125.9980 C   0  0  0  0  0  0  0  0  0  0  0  0
  133.7020  122.7330  126.3700 C   0  0  0  0  0  0  0  0  0  0  0  0
  135.2146  120.3774  124.4237 H   0  0  0  0  0  0  0  0  0  0  0  0
  136.5583  122.3686  123.7525 H   0  0  0  0  0  0  0  0  0  0  0  0
  136.8392  124.7232  123.7507 H   0  0  0  0  0  0  0  0  0  0  0  0
  136.6842  125.5132  126.7281 H   0  0  0  0  0  0  0  0  0  0  0  0
  137.9392  124.4554  125.9520 H   0  0  0  0  0  0  0  0  0  0  0  0
  138.7354  126.7825  126.3664 H   0  0  0  0  0  0  0  0  0  0  0  0
  138.7635  126.3161  124.6374 H   0  0  0  0  0  0  0  0  0  0  0  0
  136.6440  127.9090  126.0080 H   0  0  0  0  0  0  0  0  0  0  0  0
  137.7820  128.5070  124.9940 H   0  0  0  0  0  0  0  0  0  0  0  0
  135.6875  128.3048  123.8381 H   0  0  0  0  0  0  0  0  0  0  0  0
  136.9383  127.2206  123.1237 H   0  0  0  0  0  0  0  0  0  0  0  0
  134.7467  126.3816  125.1236 H   0  0  0  0  0  0  0  0  0  0  0  0
  134.2176  124.9273  123.0080 H   0  0  0  0  0  0  0  0  0  0  0  0
  133.7343  126.6827  123.0287 H   0  0  0  0  0  0  0  0  0  0  0  0
  136.4089  123.9393  121.9594 H   0  0  0  0  0  0  0  0  0  0  0  0
  136.3618  122.0956  120.2603 H   0  0  0  0  0  0  0  0  0  0  0  0
  133.9921  126.4415  119.3670 H   0  0  0  0  0  0  0  0  0  0  0  0
  133.3198  122.6195  116.7118 H   0  0  0  0  0  0  0  0  0  0  0  0
  134.8667  123.3314  116.0559 H   0  0  0  0  0  0  0  0  0  0  0  0
  134.2243  124.8324  126.4450 H   0  0  0  0  0  0  0  0  0  0  0  0
  132.8923  122.8291  127.1084 H   0  0  0  0  0  0  0  0  0  0  0  0
  1  2  1  0
  2  3  1  0
  3  4  2  0
  4  5  1  0
  5  6  1  0
  6  7  1  0
  7  8  1  0
  8  9  1  0
  9 10  1  0
 10 11  1  0
 11 12  1  0
 12 13  1  0
 13 14  1  0
 14 15  1  0
 15 16  2  0
 16 17  1  0
 17 18  2  0
 18 19  1  0
 18 20  1  0
 20 21  1  0
 21 22  1  0
  5 23  2  0
 23 24  1  0
 24  2  2  0
 11  6  1  0
 19 14  2  0
 22 17  1  0
  3 25  1  0
  4 26  1  0
  6 27  1  6
  7 28  1  0
  7 29  1  0
  8 30  1  0
  8 31  1  0
  9 32  1  0
  9 33  1  0
 10 34  1  0
 10 35  1  0
 11 36  1  1
 12 37  1  0
 12 38  1  0
 15 39  1  0
 16 40  1  0
 19 41  1  0
 21 42  1  0
 21 43  1  0
 23 44  1  0
 24 45  1  0
M  CHG  1   9   1
M  END
>  <meeko>  (1) 
{"is_sidechain": [false], "free_energy": -10.458, "intermolecular_energy": -12.903, "internal_energy": -1.125}

$$$$
seed-2401
     RDKit          3D

 45 48  0  0  0  0  0  0  0  0999 V2000
  137.0830  120.1990  126.5130 F   0  0  0  0  0  0  0  0  0  0  0  0
  136.0950  121.1010  126.4520 C   0  0  0  0  0  0  0  0  0  0  0  0
  135.2490  121.1150  125.3520 C   0  0  0  0  0  0  0  0  0  0  0  0
  134.2200  122.0570  125.2840 C   0  0  0  0  0  0  0  0  0  0  0  0
  134.0350  122.9920  126.3180 C   0  0  0  0  0  0  0  0  0  0  0  0
  132.9250  124.0290  126.2730 C   0  0  2  0  0  0  0  0  0  0  0  0
  131.5700  123.3140  126.4650 C   0  0  0  0  0  0  0  0  0  0  0  0
  130.4070  124.2860  126.4470 C   0  0  0  0  0  0  0  0  0  0  0  0
  130.4510  125.0610  125.1750 N   0  0  0  0  0  0  0  0  0  0  0  0
  131.7040  125.8480  124.9980 C   0  0  0  0  0  0  0  0  0  0  0  0
  132.9210  124.9190  124.9950 C   0  0  1  0  0  0  0  0  0  0  0  0
  134.1830  125.8030  124.8680 C   0  0  0  0  0  0  0  0  0  0  0  0
  135.2170  125.1800  124.1180 O   0  0  0  0  0  0  0  0  0  0  0  0
  135.0680  125.0320  122.7660 C   0  0  0  0  0  0  0  0  0  0  0  0
  134.4630  126.1350  122.1300 C   0  0  0  0  0  0  0  0  0  0  0  0
  134.2530  126.1530  120.7480 C   0  0  0  0  0  0  0  0  0  0  0  0
  134.6570  125.0490  120.0320 C   0  0  0  0  0  0  0  0  0  0  0  0
  135.2410  123.9680  120.6480 C   0  0  0  0  0  0  0  0  0  0  0  0
  135.4580  123.9250  122.0110 C   0  0  0  0  0  0  0  0  0  0  0  0
  135.5700  122.9840  119.7660 O   0  0  0  0  0  0  0  0  0  0  0  0
  135.0870  123.5570  118.5290 C   0  0  0  0  0  0  0  0  0  0  0  0
  134.5410  124.8820  118.6900 O   0  0  0  0  0  0  0  0  0  0  0  0
  134.9040  122.9540  127.4230 C   0  0  0  0  0  0  0  0  0  0  0  0
  135.9310  122.0100  127.4870 C   0  0  0  0  0  0  0  0  0  0  0  0
  135.3881  120.3882  124.5381 H   0  0  0  0  0  0  0  0  0  0  0  0
  133.5479  122.0676  124.4133 H   0  0  0  0  0  0  0  0  0  0  0  0
  133.1096  124.7365  127.0948 H   0  0  0  0  0  0  0  0  0  0  0  0
  131.4354  122.5842  125.6530 H   0  0  0  0  0  0  0  0  0  0  0  0
  131.5835  122.8188  127.4471 H   0  0  0  0  0  0  0  0  0  0  0  0
  129.4596  123.7306  126.5094 H   0  0  0  0  0  0  0  0  0  0  0  0
  130.4775  124.9704  127.3052 H   0  0  0  0  0  0  0  0  0  0  0  0
  130.3200  124.4230  124.3760 H   0  0  0  0  0  0  0  0  0  0  0  0
  129.6430  125.6990  125.1460 H   0  0  0  0  0  0  0  0  0  0  0  0
  131.6595  126.3904  124.0420 H   0  0  0  0  0  0  0  0  0  0  0  0
  131.7997  126.5593  125.8316 H   0  0  0  0  0  0  0  0  0  0  0  0
  132.8935  124.2218  124.1446 H   0  0  0  0  0  0  0  0  0  0  0  0
  133.9049  126.7435  124.3699 H   0  0  0  0  0  0  0  0  0  0  0  0
  134.5688  125.9783  125.8831 H   0  0  0  0  0  0  0  0  0  0  0  0
  134.1496  126.9995  122.7337 H   0  0  0  0  0  0  0  0  0  0  0  0
  133.7834  127.0154  120.2523 H   0  0  0  0  0  0  0  0  0  0  0  0
  135.9225  123.0480  122.4855 H   0  0  0  0  0  0  0  0  0  0  0  0
  135.9243  123.6083  117.8174 H   0  0  0  0  0  0  0  0  0  0  0  0
  134.2740  122.9111  118.1659 H   0  0  0  0  0  0  0  0  0  0  0  0
  134.7736  123.6742  128.2441 H   0  0  0  0  0  0  0  0  0  0  0  0
  136.6071  121.9873  128.3544 H   0  0  0  0  0  0  0  0  0  0  0  0
  1  2  1  0
  2  3  1  0
  3  4  2  0
  4  5  1  0
  5  6  1  0
  6  7  1  0
  7  8  1  0
  8  9  1  0
  9 10  1  0
 10 11  1  0
 11 12  1  0
 12 13  1  0
 13 14  1  0
 14 15  1  0
 15 16  2  0
 16 17  1  0
 17 18  2  0
 18 19  1  0
 18 20  1  0
 20 21  1  0
 21 22  1  0
  5 23  2  0
 23 24  1  0
 24  2  2  0
 11  6  1  0
 19 14  2  0
 22 17  1  0
  3 25  1  0
  4 26  1  0
  6 27  1  1
  7 28  1  0
  7 29  1  0
  8 30  1  0
  8 31  1  0
  9 32  1  0
  9 33  1  0
 10 34  1  0
 10 35  1  0
 11 36  1  6
 12 37  1  0
 12 38  1  0
 15 39  1  0
 16 40  1  0
 19 41  1  0
 21 42  1  0
 21 43  1  0
 23 44  1  0
 24 45  1  0
M  CHG  1   9   1
M  END
>  <meeko>  (2) 
{"is_sidechain": [false], "free_energy": -9.759, "intermolecular_energy": -12.092, "internal_energy": -1.074}

$$$$
seed-2401
     RDKit          3D

 45 48  0  0  0  0  0  0  0  0999 V2000
  136.9700  120.1130  126.4770 F   0  0  0  0  0  0  0  0  0  0  0  0
  136.0190  121.0530  126.4070 C   0  0  0  0  0  0  0  0  0  0  0  0
  135.1700  121.0860  125.3110 C   0  0  0  0  0  0  0  0  0  0  0  0
  134.1800  122.0680  125.2320 C   0  0  0  0  0  0  0  0  0  0  0  0
  134.0370  123.0240  126.2540 C   0  0  0  0  0  0  0  0  0  0  0  0
  132.9690  124.1030  126.1980 C   0  0  2  0  0  0  0  0  0  0  0  0
  131.5970  123.4600  126.4930 C   0  0  0  0  0  0  0  0  0  0  0  0
  130.4740  124.4790  126.4700 C   0  0  0  0  0  0  0  0  0  0  0  0
  130.4900  125.1780  125.1540 N   0  0  0  0  0  0  0  0  0  0  0  0
  131.7640  125.8990  124.8750 C   0  0  0  0  0  0  0  0  0  0  0  0
  132.9400  124.9190  124.8720 C   0  0  1  0  0  0  0  0  0  0  0  0
  134.2300  125.7380  124.6350 C   0  0  0  0  0  0  0  0  0  0  0  0
  134.2810  126.3220  123.3410 O   0  0  0  0  0  0  0  0  0  0  0  0
  134.5920  125.5390  122.2640 C   0  0  0  0  0  0  0  0  0  0  0  0
  135.3640  124.4030  122.5830 C   0  0  0  0  0  0  0  0  0  0  0  0
  135.7530  123.4880  121.6000 C   0  0  0  0  0  0  0  0  0  0  0  0
  135.3570  123.7420  120.3070 C   0  0  0  0  0  0  0  0  0  0  0  0
  134.6100  124.8510  119.9890 C   0  0  0  0  0  0  0  0  0  0  0  0
  134.2140  125.7710  120.9410 C   0  0  0  0  0  0  0  0  0  0  0  0
  134.3200  124.9180  118.6610 O   0  0  0  0  0  0  0  0  0  0  0  0
  135.0070  123.7410  118.1740 C   0  0  0  0  0  0  0  0  0  0  0  0
  135.6340  122.9740  119.2220 O   0  0  0  0  0  0  0  0  0  0  0  0
  134.9080  122.9660  127.3570 C   0  0  0  0  0  0  0  0  0  0  0  0
  135.8970  121.9820  127.4300 C   0  0  0  0  0  0  0  0  0  0  0  0
  135.2758  120.3422  124.5075 H   0  0  0  0  0  0  0  0  0  0  0  0
  133.5061  122.0941  124.3630 H   0  0  0  0  0  0  0  0  0  0  0  0
  133.2214  124.8471  126.9678 H   0  0  0  0  0  0  0  0  0  0  0  0
  131.3944  122.6914  125.7326 H   0  0  0  0  0  0  0  0  0  0  0  0
  131.6373  123.0222  127.5013 H   0  0  0  0  0  0  0  0  0  0  0  0
  129.5088  123.9693  126.6067 H   0  0  0  0  0  0  0  0  0  0  0  0
  130.6119  125.2072  127.2829 H   0  0  0  0  0  0  0  0  0  0  0  0
  130.2950  124.5010  124.4010 H   0  0  0  0  0  0  0  0  0  0  0  0
  129.7080  125.8480  125.1240 H   0  0  0  0  0  0  0  0  0  0  0  0
  131.6965  126.3877  123.8918 H   0  0  0  0  0  0  0  0  0  0  0  0
  131.9280  126.6520  125.6599 H   0  0  0  0  0  0  0  0  0  0  0  0
  132.8426  124.1761  124.0666 H   0  0  0  0  0  0  0  0  0  0  0  0
  134.2794  126.5409  125.3852 H   0  0  0  0  0  0  0  0  0  0  0  0
  135.0816  125.0470  124.7204 H   0  0  0  0  0  0  0  0  0  0  0  0
  135.6665  124.2331  123.6269 H   0  0  0  0  0  0  0  0  0  0  0  0
  136.3520  122.6001  121.8504 H   0  0  0  0  0  0  0  0  0  0  0  0
  133.6213  126.6557  120.6654 H   0  0  0  0  0  0  0  0  0  0  0  0
  134.2775  123.0984  117.6593 H   0  0  0  0  0  0  0  0  0  0  0  0
  135.8046  124.0844  117.4987 H   0  0  0  0  0  0  0  0  0  0  0  0
  134.8096  123.7016  128.1689 H   0  0  0  0  0  0  0  0  0  0  0  0
  136.5759  121.9440  128.2947 H   0  0  0  0  0  0  0  0  0  0  0  0
  1  2  1  0
  2  3  1  0
  3  4  2  0
  4  5  1  0
  5  6  1  0
  6  7  1  0
  7  8  1  0
  8  9  1  0
  9 10  1  0
 10 11  1  0
 11 12  1  0
 12 13  1  0
 13 14  1  0
 14 15  1  0
 15 16  2  0
 16 17  1  0
 17 18  2  0
 18 19  1  0
 18 20  1  0
 20 21  1  0
 21 22  1  0
  5 23  2  0
 23 24  1  0
 24  2  2  0
 11  6  1  0
 19 14  2  0
 22 17  1  0
  3 25  1  0
  4 26  1  0
  6 27  1  1
  7 28  1  0
  7 29  1  0
  8 30  1  0
  8 31  1  0
  9 32  1  0
  9 33  1  0
 10 34  1  0
 10 35  1  0
 11 36  1  6
 12 37  1  0
 12 38  1  0
 15 39  1  0
 16 40  1  0
 19 41  1  0
 21 42  1  0
 21 43  1  0
 23 44  1  0
 24 45  1  0
M  CHG  1   9   1
M  END
>  <meeko>  (3) 
{"is_sidechain": [false], "free_energy": -9.651, "intermolecular_energy": -11.96, "internal_energy": -1.073}

$$$$
seed-2401
     RDKit          3D

 45 48  0  0  0  0  0  0  0  0999 V2000
  135.6750  121.8090  127.9670 F   0  0  0  0  0  0  0  0  0  0  0  0
  135.5160  122.1520  126.6830 C   0  0  0  0  0  0  0  0  0  0  0  0
  135.1480  121.1870  125.7570 C   0  0  0  0  0  0  0  0  0  0  0  0
  134.9870  121.5410  124.4160 C   0  0  0  0  0  0  0  0  0  0  0  0
  135.1950  122.8670  123.9950 C   0  0  0  0  0  0  0  0  0  0  0  0
  135.0260  123.2840  122.5440 C   0  0  2  0  0  0  0  0  0  0  0  0
  136.4150  123.3100  121.8700 C   0  0  0  0  0  0  0  0  0  0  0  0
  136.3290  123.7050  120.4080 C   0  0  0  0  0  0  0  0  0  0  0  0
  135.6370  125.0210  120.3070 N   0  0  0  0  0  0  0  0  0  0  0  0
  134.2520  125.0110  120.8570 C   0  0  0  0  0  0  0  0  0  0  0  0
  134.2700  124.6300  122.3400 C   0  0  1  0  0  0  0  0  0  0  0  0
  132.8040  124.5830  122.8280 C   0  0  0  0  0  0  0  0  0  0  0  0
  132.5820  125.3830  123.9800 O   0  0  0  0  0  0  0  0  0  0  0  0
  131.7330  124.9350  124.9540 C   0  0  0  0  0  0  0  0  0  0  0  0
  132.0670  123.6660  125.4690 C   0  0  0  0  0  0  0  0  0  0  0  0
  131.3110  123.0710  126.4830 C   0  0  0  0  0  0  0  0  0  0  0  0
  130.2250  123.7700  126.9570 C   0  0  0  0  0  0  0  0  0  0  0  0
  129.8910  125.0050  126.4550 C   0  0  0  0  0  0  0  0  0  0  0  0
  130.6190  125.6140  125.4520 C   0  0  0  0  0  0  0  0  0  0  0  0
  128.7890  125.5300  127.0580 O   0  0  0  0  0  0  0  0  0  0  0  0
  128.4460  124.4620  127.9710 C   0  0  0  0  0  0  0  0  0  0  0  0
  129.3770  123.3610  127.9350 O   0  0  0  0  0  0  0  0  0  0  0  0
  135.5640  123.8280  124.9550 C   0  0  0  0  0  0  0  0  0  0  0  0
  135.7240  123.4680  126.2940 C   0  0  0  0  0  0  0  0  0  0  0  0
  134.9838  120.1477  126.0777 H   0  0  0  0  0  0  0  0  0  0  0  0
  134.6948  120.7758  123.6818 H   0  0  0  0  0  0  0  0  0  0  0  0
  134.3776  122.5352  122.0656 H   0  0  0  0  0  0  0  0  0  0  0  0
  137.0521  124.0354  122.3971 H   0  0  0  0  0  0  0  0  0  0  0  0
  136.8383  122.2961  121.9240 H   0  0  0  0  0  0  0  0  0  0  0  0
  137.3418  123.7864  119.9866 H   0  0  0  0  0  0  0  0  0  0  0  0
  135.7679  122.9432  119.8470 H   0  0  0  0  0  0  0  0  0  0  0  0
  136.1990  125.7450  120.7800 H   0  0  0  0  0  0  0  0  0  0  0  0
  135.6080  125.3060  119.3180 H   0  0  0  0  0  0  0  0  0  0  0  0
  133.8103  126.0122  120.7452 H   0  0  0  0  0  0  0  0  0  0  0  0
  133.6541  124.2706  120.3053 H   0  0  0  0  0  0  0  0  0  0  0  0
  134.8159  125.3729  122.9401 H   0  0  0  0  0  0  0  0  0  0  0  0
  132.1523  124.9438  122.0186 H   0  0  0  0  0  0  0  0  0  0  0  0
  132.5784  123.5412  123.0996 H   0  0  0  0  0  0  0  0  0  0  0  0
  132.9403  123.1332  125.0647 H   0  0  0  0  0  0  0  0  0  0  0  0
  131.5742  122.0821  126.8864 H   0  0  0  0  0  0  0  0  0  0  0  0
  130.3313  126.6002  125.0588 H   0  0  0  0  0  0  0  0  0  0  0  0
  128.4256  124.8689  128.9928 H   0  0  0  0  0  0  0  0  0  0  0  0
  127.4657  124.0706  127.6617 H   0  0  0  0  0  0  0  0  0  0  0  0
  135.7276  124.8714  124.6474 H   0  0  0  0  0  0  0  0  0  0  0  0
  136.0139  124.2244  127.0382 H   0  0  0  0  0  0  0  0  0  0  0  0
  1  2  1  0
  2  3  1  0
  3  4  2  0
  4  5  1  0
  5  6  1  0
  6  7  1  0
  7  8  1  0
  8  9  1  0
  9 10  1  0
 10 11  1  0
 11 12  1  0
 12 13  1  0
 13 14  1  0
 14 15  1  0
 15 16  2  0
 16 17  1  0
 17 18  2  0
 18 19  1  0
 18 20  1  0
 20 21  1  0
 21 22  1  0
  5 23  2  0
 23 24  1  0
 24  2  2  0
 11  6  1  0
 19 14  2  0
 22 17  1  0
  3 25  1  0
  4 26  1  0
  6 27  1  6
  7 28  1  0
  7 29  1  0
  8 30  1  0
  8 31  1  0
  9 32  1  0
  9 33  1  0
 10 34  1  0
 10 35  1  0
 11 36  1  1
 12 37  1  0
 12 38  1  0
 15 39  1  0
 16 40  1  0
 19 41  1  0
 21 42  1  0
 21 43  1  0
 23 44  1  0
 24 45  1  0
M  CHG  1   9   1
M  END
>  <meeko>  (4) 
{"is_sidechain": [false], "free_energy": -9.346, "intermolecular_energy": -11.306, "internal_energy": -1.35}

$$$$
seed-2401
     RDKit          3D

 45 48  0  0  0  0  0  0  0  0999 V2000
  130.4580  127.4330  124.0570 F   0  0  0  0  0  0  0  0  0  0  0  0
  131.3320  126.4200  124.1180 C   0  0  0  0  0  0  0  0  0  0  0  0
  131.5630  125.6470  122.9890 C   0  0  0  0  0  0  0  0  0  0  0  0
  132.4700  124.5870  123.0520 C   0  0  0  0  0  0  0  0  0  0  0  0
  133.1500  124.2960  124.2480 C   0  0  0  0  0  0  0  0  0  0  0  0
  134.1440  123.1510  124.3460 C   0  0  2  0  0  0  0  0  0  0  0  0
  133.6750  122.1800  125.4510 C   0  0  0  0  0  0  0  0  0  0  0  0
  134.6110  120.9960  125.6020 C   0  0  0  0  0  0  0  0  0  0  0  0
  135.9880  121.5050  125.8570 N   0  0  0  0  0  0  0  0  0  0  0  0
  136.5180  122.3660  124.7620 C   0  0  0  0  0  0  0  0  0  0  0  0
  135.6210  123.5920  124.5670 C   0  0  1  0  0  0  0  0  0  0  0  0
  136.1940  124.4060  123.3850 C   0  0  0  0  0  0  0  0  0  0  0  0
  136.5310  123.5930  122.2690 O   0  0  0  0  0  0  0  0  0  0  0  0
  135.8880  123.7900  121.0780 C   0  0  0  0  0  0  0  0  0  0  0  0
  135.2920  125.0610  120.9500 C   0  0  0  0  0  0  0  0  0  0  0  0
  134.6110  125.4310  119.7860 C   0  0  0  0  0  0  0  0  0  0  0  0
  134.5410  124.5040  118.7720 C   0  0  0  0  0  0  0  0  0  0  0  0
  135.1150  123.2610  118.8930 C   0  0  0  0  0  0  0  0  0  0  0  0
  135.7920  122.8710  120.0320 C   0  0  0  0  0  0  0  0  0  0  0  0
  134.9380  122.4970  117.7810 O   0  0  0  0  0  0  0  0  0  0  0  0
  134.1500  123.3900  116.9610 C   0  0  0  0  0  0  0  0  0  0  0  0
  133.9290  124.6780  117.5720 O   0  0  0  0  0  0  0  0  0  0  0  0
  132.9020  125.0980  125.3760 C   0  0  0  0  0  0  0  0  0  0  0  0
  131.9930  126.1570  125.3090 C   0  0  0  0  0  0  0  0  0  0  0  0
  131.0347  125.8679  122.0498 H   0  0  0  0  0  0  0  0  0  0  0  0
  132.6543  123.9738  122.1575 H   0  0  0  0  0  0  0  0  0  0  0  0
  134.1557  122.6480  123.3678 H   0  0  0  0  0  0  0  0  0  0  0  0
  133.6326  122.7233  126.4065 H   0  0  0  0  0  0  0  0  0  0  0  0
  132.6841  121.7957  125.1674 H   0  0  0  0  0  0  0  0  0  0  0  0
  134.2848  120.3717  126.4469 H   0  0  0  0  0  0  0  0  0  0  0  0
  134.5995  120.3898  124.6842 H   0  0  0  0  0  0  0  0  0  0  0  0
  136.0080  122.0180  126.7510 H   0  0  0  0  0  0  0  0  0  0  0  0
  136.6190  120.7020  125.9920 H   0  0  0  0  0  0  0  0  0  0  0  0
  137.5343  122.6977  125.0211 H   0  0  0  0  0  0  0  0  0  0  0  0
  136.5373  121.7851  123.8281 H   0  0  0  0  0  0  0  0  0  0  0  0
  135.6119  124.2315  125.4620 H   0  0  0  0  0  0  0  0  0  0  0  0
  135.4416  125.1433  123.0684 H   0  0  0  0  0  0  0  0  0  0  0  0
  137.1182  124.8903  123.7333 H   0  0  0  0  0  0  0  0  0  0  0  0
  135.3641  125.7763  121.7826 H   0  0  0  0  0  0  0  0  0  0  0  0
  134.1494  126.4243  119.6852 H   0  0  0  0  0  0  0  0  0  0  0  0
  136.2404  121.8698  120.1120 H   0  0  0  0  0  0  0  0  0  0  0  0
  134.6745  123.5417  116.0061 H   0  0  0  0  0  0  0  0  0  0  0  0
  133.1646  122.9213  116.8220 H   0  0  0  0  0  0  0  0  0  0  0  0
  133.4281  124.8899  126.3193 H   0  0  0  0  0  0  0  0  0  0  0  0
  131.8025  126.7790  126.1960 H   0  0  0  0  0  0  0  0  0  0  0  0
  1  2  1  0
  2  3  1  0
  3  4  2  0
  4  5  1  0
  5  6  1  0
  6  7  1  0
  7  8  1  0
  8  9  1  0
  9 10  1  0
 10 11  1  0
 11 12  1  0
 12 13  1  0
 13 14  1  0
 14 15  1  0
 15 16  2  0
 16 17  1  0
 17 18  2  0
 18 19  1  0
 18 20  1  0
 20 21  1  0
 21 22  1  0
  5 23  2  0
 23 24  1  0
 24  2  2  0
 11  6  1  0
 19 14  2  0
 22 17  1  0
  3 25  1  0
  4 26  1  0
  6 27  1  6
  7 28  1  0
  7 29  1  0
  8 30  1  0
  8 31  1  0
  9 32  1  0
  9 33  1  0
 10 34  1  0
 10 35  1  0
 11 36  1  1
 12 37  1  0
 12 38  1  0
 15 39  1  0
 16 40  1  0
 19 41  1  0
 21 42  1  0
 21 43  1  0
 23 44  1  0
 24 45  1  0
M  CHG  1   9   1
M  END
>  <meeko>  (5) 
{"is_sidechain": [false], "free_energy": -9.343, "intermolecular_energy": -11.315, "internal_energy": -1.338}

$$$$
seed-2401
     RDKit          3D

 45 48  0  0  0  0  0  0  0  0999 V2000
  127.4280  130.0490  120.9070 F   0  0  0  0  0  0  0  0  0  0  0  0
  127.9300  129.3890  121.9580 C   0  0  0  0  0  0  0  0  0  0  0  0
  127.4270  128.1370  122.2830 C   0  0  0  0  0  0  0  0  0  0  0  0
  127.9470  127.4480  123.3810 C   0  0  0  0  0  0  0  0  0  0  0  0
  128.9740  128.0110  124.1600 C   0  0  0  0  0  0  0  0  0  0  0  0
  129.5600  127.2850  125.3590 C   0  0  2  0  0  0  0  0  0  0  0  0
  129.1240  128.0180  126.6460 C   0  0  0  0  0  0  0  0  0  0  0  0
  129.6590  127.3430  127.8940 C   0  0  0  0  0  0  0  0  0  0  0  0
  131.1420  127.2450  127.7860 N   0  0  0  0  0  0  0  0  0  0  0  0
  131.6040  126.4560  126.6090 C   0  0  0  0  0  0  0  0  0  0  0  0
  131.1050  127.0950  125.3100 C   0  0  1  0  0  0  0  0  0  0  0  0
  131.5690  126.1980  124.1400 C   0  0  0  0  0  0  0  0  0  0  0  0
  132.9690  125.9550  124.1540 O   0  0  0  0  0  0  0  0  0  0  0  0
  133.5750  125.4600  123.0330 C   0  0  0  0  0  0  0  0  0  0  0  0
  133.5860  126.3540  121.9430 C   0  0  0  0  0  0  0  0  0  0  0  0
  134.1830  126.0100  120.7260 C   0  0  0  0  0  0  0  0  0  0  0  0
  134.7560  124.7630  120.6320 C   0  0  0  0  0  0  0  0  0  0  0  0
  134.7420  123.8850  121.6890 C   0  0  0  0  0  0  0  0  0  0  0  0
  134.1580  124.1990  122.9010 C   0  0  0  0  0  0  0  0  0  0  0  0
  135.3620  122.7090  121.3950 O   0  0  0  0  0  0  0  0  0  0  0  0
  135.7320  122.9360  120.0150 C   0  0  0  0  0  0  0  0  0  0  0  0
  135.3810  124.2520  119.5400 O   0  0  0  0  0  0  0  0  0  0  0  0
  129.4690  129.2790  123.8060 C   0  0  0  0  0  0  0  0  0  0  0  0
  128.9460  129.9640  122.7070 C   0  0  0  0  0  0  0  0  0  0  0  0
  126.6235  127.6899  121.6793 H   0  0  0  0  0  0  0  0  0  0  0  0
  127.5495  126.4553  123.6391 H   0  0  0  0  0  0  0  0  0  0  0  0
  129.1604  126.2603  125.3431 H   0  0  0  0  0  0  0  0  0  0  0  0
  129.5012  129.0507  126.6115 H   0  0  0  0  0  0  0  0  0  0  0  0
  128.0252  127.9967  126.6931 H   0  0  0  0  0  0  0  0  0  0  0  0
  129.3909  127.9372  128.7800 H   0  0  0  0  0  0  0  0  0  0  0  0
  129.2232  126.3378  127.9924 H   0  0  0  0  0  0  0  0  0  0  0  0
  131.5510  128.1910  127.7590 H   0  0  0  0  0  0  0  0  0  0  0  0
  131.5100  126.8160  128.6470 H   0  0  0  0  0  0  0  0  0  0  0  0
  132.7036  126.4280  126.6002 H   0  0  0  0  0  0  0  0  0  0  0  0
  131.2009  125.4352  126.6828 H   0  0  0  0  0  0  0  0  0  0  0  0
  131.5256  128.1016  125.1689 H   0  0  0  0  0  0  0  0  0  0  0  0
  131.0442  125.2336  124.2070 H   0  0  0  0  0  0  0  0  0  0  0  0
  131.3339  126.7263  123.2043 H   0  0  0  0  0  0  0  0  0  0  0  0
  133.1154  127.3423  122.0520 H   0  0  0  0  0  0  0  0  0  0  0  0
  134.1939  126.7094  119.8770 H   0  0  0  0  0  0  0  0  0  0  0  0
  134.1527  123.4798  123.7333 H   0  0  0  0  0  0  0  0  0  0  0  0
  136.8205  122.8091  119.9198 H   0  0  0  0  0  0  0  0  0  0  0  0
  135.1755  122.2097  119.4044 H   0  0  0  0  0  0  0  0  0  0  0  0
  130.2749  129.7351  124.3998 H   0  0  0  0  0  0  0  0  0  0  0  0
  129.3382  130.9555  122.4365 H   0  0  0  0  0  0  0  0  0  0  0  0
  1  2  1  0
  2  3  1  0
  3  4  2  0
  4  5  1  0
  5  6  1  0
  6  7  1  0
  7  8  1  0
  8  9  1  0
  9 10  1  0
 10 11  1  0
 11 12  1  0
 12 13  1  0
 13 14  1  0
 14 15  1  0
 15 16  2  0
 16 17  1  0
 17 18  2  0
 18 19  1  0
 18 20  1  0
 20 21  1  0
 21 22  1  0
  5 23  2  0
 23 24  1  0
 24  2  2  0
 11  6  1  0
 19 14  2  0
 22 17  1  0
  3 25  1  0
  4 26  1  0
  6 27  1  1
  7 28  1  0
  7 29  1  0
  8 30  1  0
  8 31  1  0
  9 32  1  0
  9 33  1  0
 10 34  1  0
 10 35  1  0
 11 36  1  6
 12 37  1  0
 12 38  1  0
 15 39  1  0
 16 40  1  0
 19 41  1  0
 21 42  1  0
 21 43  1  0
 23 44  1  0
 24 45  1  0
M  CHG  1   9   1
M  END
>  <meeko>  (6) 
{"is_sidechain": [false], "free_energy": -9.163, "intermolecular_energy": -11.717, "internal_energy": -0.713}

$$$$
seed-2401
     RDKit          3D

 45 48  0  0  0  0  0  0  0  0999 V2000
  135.7010  121.2090  128.1500 F   0  0  0  0  0  0  0  0  0  0  0  0
  135.6180  121.9770  127.0560 C   0  0  0  0  0  0  0  0  0  0  0  0
  135.0410  123.2350  127.1470 C   0  0  0  0  0  0  0  0  0  0  0  0
  134.9480  124.0360  126.0060 C   0  0  0  0  0  0  0  0  0  0  0  0
  135.4340  123.5780  124.7680 C   0  0  0  0  0  0  0  0  0  0  0  0
  135.3490  124.4270  123.5100 C   0  0  2  0  0  0  0  0  0  0  0  0
  136.4830  125.4740  123.5400 C   0  0  0  0  0  0  0  0  0  0  0  0
  136.4750  126.3550  122.3060 C   0  0  0  0  0  0  0  0  0  0  0  0
  135.1340  126.9920  122.1810 N   0  0  0  0  0  0  0  0  0  0  0  0
  134.0180  126.0130  122.0470 C   0  0  0  0  0  0  0  0  0  0  0  0
  133.9630  125.0970  123.2730 C   0  0  1  0  0  0  0  0  0  0  0  0
  132.8260  124.0750  123.0420 C   0  0  0  0  0  0  0  0  0  0  0  0
  131.5340  124.6460  123.1950 O   0  0  0  0  0  0  0  0  0  0  0  0
  131.2050  125.2490  124.3780 C   0  0  0  0  0  0  0  0  0  0  0  0
  131.2600  124.3920  125.4960 C   0  0  0  0  0  0  0  0  0  0  0  0
  130.9700  124.8560  126.7820 C   0  0  0  0  0  0  0  0  0  0  0  0
  130.6230  126.1810  126.9150 C   0  0  0  0  0  0  0  0  0  0  0  0
  130.5610  127.0200  125.8280 C   0  0  0  0  0  0  0  0  0  0  0  0
  130.8420  126.5870  124.5460 C   0  0  0  0  0  0  0  0  0  0  0  0
  130.2040  128.2870  126.1700 O   0  0  0  0  0  0  0  0  0  0  0  0
  130.0090  128.1380  127.5960 C   0  0  0  0  0  0  0  0  0  0  0  0
  130.3110  126.8120  128.0760 O   0  0  0  0  0  0  0  0  0  0  0  0
  136.0180  122.3010  124.7050 C   0  0  0  0  0  0  0  0  0  0  0  0
  136.1080  121.5030  125.8480 C   0  0  0  0  0  0  0  0  0  0  0  0
  134.6589  123.5999  128.1118 H   0  0  0  0  0  0  0  0  0  0  0  0
  134.4905  125.0339  126.0765 H   0  0  0  0  0  0  0  0  0  0  0  0
  135.4715  123.7487  122.6528 H   0  0  0  0  0  0  0  0  0  0  0  0
  136.3575  126.1082  124.4300 H   0  0  0  0  0  0  0  0  0  0  0  0
  137.4419  124.9358  123.5672 H   0  0  0  0  0  0  0  0  0  0  0  0
  137.2466  127.1331  122.4020 H   0  0  0  0  0  0  0  0  0  0  0  0
  136.6864  125.7494  121.4124 H   0  0  0  0  0  0  0  0  0  0  0  0
  134.9670  127.6090  122.9900 H   0  0  0  0  0  0  0  0  0  0  0  0
  135.1370  127.6160  121.3620 H   0  0  0  0  0  0  0  0  0  0  0  0
  133.0665  126.5577  121.9582 H   0  0  0  0  0  0  0  0  0  0  0  0
  134.1867  125.3994  121.1498 H   0  0  0  0  0  0  0  0  0  0  0  0
  133.7442  125.6637  124.1901 H   0  0  0  0  0  0  0  0  0  0  0  0
  132.9149  123.6748  122.0212 H   0  0  0  0  0  0  0  0  0  0  0  0
  132.9312  123.2850  123.8001 H   0  0  0  0  0  0  0  0  0  0  0  0
  131.5367  123.3370  125.3533 H   0  0  0  0  0  0  0  0  0  0  0  0
  131.0173  124.1877  127.6544 H   0  0  0  0  0  0  0  0  0  0  0  0
  130.7818  127.2724  123.6878 H   0  0  0  0  0  0  0  0  0  0  0  0
  130.6625  128.8547  128.1148 H   0  0  0  0  0  0  0  0  0  0  0  0
  128.9446  128.3251  127.8013 H   0  0  0  0  0  0  0  0  0  0  0  0
  136.4077  121.9266  123.7469 H   0  0  0  0  0  0  0  0  0  0  0  0
  136.5650  120.5041  125.7904 H   0  0  0  0  0  0  0  0  0  0  0  0
  1  2  1  0
  2  3  1  0
  3  4  2  0
  4  5  1  0
  5  6  1  0
  6  7  1  0
  7  8  1  0
  8  9  1  0
  9 10  1  0
 10 11  1  0
 11 12  1  0
 12 13  1  0
 13 14  1  0
 14 15  1  0
 15 16  2  0
 16 17  1  0
 17 18  2  0
 18 19  1  0
 18 20  1  0
 20 21  1  0
 21 22  1  0
  5 23  2  0
 23 24  1  0
 24  2  2  0
 11  6  1  0
 19 14  2  0
 22 17  1  0
  3 25  1  0
  4 26  1  0
  6 27  1  6
  7 28  1  0
  7 29  1  0
  8 30  1  0
  8 31  1  0
  9 32  1  0
  9 33  1  0
 10 34  1  0
 10 35  1  0
 11 36  1  1
 12 37  1  0
 12 38  1  0
 15 39  1  0
 16 40  1  0
 19 41  1  0
 21 42  1  0
 21 43  1  0
 23 44  1  0
 24 45  1  0
M  CHG  1   9   1
M  END
>  <meeko>  (7) 
{"is_sidechain": [false], "free_energy": -9.107, "intermolecular_energy": -11.138, "internal_energy": -1.223}

$$$$
seed-2401
     RDKit          3D

 45 48  0  0  0  0  0  0  0  0999 V2000
  135.4460  121.8090  128.1450 F   0  0  0  0  0  0  0  0  0  0  0  0
  135.2860  122.1530  126.8610 C   0  0  0  0  0  0  0  0  0  0  0  0
  135.1630  121.1620  125.8980 C   0  0  0  0  0  0  0  0  0  0  0  0
  135.0000  121.5170  124.5570 C   0  0  0  0  0  0  0  0  0  0  0  0
  134.9610  122.8700  124.1750 C   0  0  0  0  0  0  0  0  0  0  0  0
  134.7840  123.2880  122.7240 C   0  0  2  0  0  0  0  0  0  0  0  0
  136.1640  123.2760  122.0320 C   0  0  0  0  0  0  0  0  0  0  0  0
  136.0700  123.6700  120.5700 C   0  0  0  0  0  0  0  0  0  0  0  0
  135.4120  125.0040  120.4760 N   0  0  0  0  0  0  0  0  0  0  0  0
  134.0340  125.0320  121.0440 C   0  0  0  0  0  0  0  0  0  0  0  0
  134.0620  124.6540  122.5270 C   0  0  1  0  0  0  0  0  0  0  0  0
  132.6010  124.6470  123.0340 C   0  0  0  0  0  0  0  0  0  0  0  0
  131.9740  125.9160  122.9220 O   0  0  0  0  0  0  0  0  0  0  0  0
  131.3670  126.4640  124.0180 C   0  0  0  0  0  0  0  0  0  0  0  0
  130.0440  126.8930  123.7890 C   0  0  0  0  0  0  0  0  0  0  0  0
  129.2760  127.4590  124.8110 C   0  0  0  0  0  0  0  0  0  0  0  0
  129.8630  127.5850  126.0490 C   0  0  0  0  0  0  0  0  0  0  0  0
  131.1540  127.1740  126.2770 C   0  0  0  0  0  0  0  0  0  0  0  0
  131.9350  126.6140  125.2840 C   0  0  0  0  0  0  0  0  0  0  0  0
  131.5460  127.3820  127.5640 O   0  0  0  0  0  0  0  0  0  0  0  0
  130.3610  128.0090  128.1080 C   0  0  0  0  0  0  0  0  0  0  0  0
  129.2800  128.1050  127.1590 O   0  0  0  0  0  0  0  0  0  0  0  0
  135.0840  123.8550  125.1710 C   0  0  0  0  0  0  0  0  0  0  0  0
  135.2460  123.4950  126.5100 C   0  0  0  0  0  0  0  0  0  0  0  0
  135.1937  120.1017  126.1892 H   0  0  0  0  0  0  0  0  0  0  0  0
  134.9013  120.7317  123.7931 H   0  0  0  0  0  0  0  0  0  0  0  0
  134.1100  122.5554  122.2560 H   0  0  0  0  0  0  0  0  0  0  0  0
  136.8268  123.9855  122.5491 H   0  0  0  0  0  0  0  0  0  0  0  0
  136.5608  122.2513  122.0829 H   0  0  0  0  0  0  0  0  0  0  0  0
  137.0791  123.7236  120.1355 H   0  0  0  0  0  0  0  0  0  0  0  0
  135.4821  122.9223  120.0174 H   0  0  0  0  0  0  0  0  0  0  0  0
  135.9990  125.7130  120.9400 H   0  0  0  0  0  0  0  0  0  0  0  0
  135.3770  125.2870  119.4860 H   0  0  0  0  0  0  0  0  0  0  0  0
  133.6174  126.0443  120.9355 H   0  0  0  0  0  0  0  0  0  0  0  0
  133.4092  124.3069  120.5020 H   0  0  0  0  0  0  0  0  0  0  0  0
  134.6358  125.3830  123.1181 H   0  0  0  0  0  0  0  0  0  0  0  0
  132.0273  123.9180  122.4429 H   0  0  0  0  0  0  0  0  0  0  0  0
  132.6218  124.3807  124.1011 H   0  0  0  0  0  0  0  0  0  0  0  0
  129.6069  126.7802  122.7859 H   0  0  0  0  0  0  0  0  0  0  0  0
  128.2426  127.7907  124.6323 H   0  0  0  0  0  0  0  0  0  0  0  0
  132.9691  126.2972  125.4845 H   0  0  0  0  0  0  0  0  0  0  0  0
  130.0176  127.4179  128.9698 H   0  0  0  0  0  0  0  0  0  0  0  0
  130.6368  129.0351  128.3927 H   0  0  0  0  0  0  0  0  0  0  0  0
  135.0523  124.9187  124.8925 H   0  0  0  0  0  0  0  0  0  0  0  0
  135.3415  124.2715  127.2833 H   0  0  0  0  0  0  0  0  0  0  0  0
  1  2  1  0
  2  3  1  0
  3  4  2  0
  4  5  1  0
  5  6  1  0
  6  7  1  0
  7  8  1  0
  8  9  1  0
  9 10  1  0
 10 11  1  0
 11 12  1  0
 12 13  1  0
 13 14  1  0
 14 15  1  0
 15 16  2  0
 16 17  1  0
 17 18  2  0
 18 19  1  0
 18 20  1  0
 20 21  1  0
 21 22  1  0
  5 23  2  0
 23 24  1  0
 24  2  2  0
 11  6  1  0
 19 14  2  0
 22 17  1  0
  3 25  1  0
  4 26  1  0
  6 27  1  6
  7 28  1  0
  7 29  1  0
  8 30  1  0
  8 31  1  0
  9 32  1  0
  9 33  1  0
 10 34  1  0
 10 35  1  0
 11 36  1  1
 12 37  1  0
 12 38  1  0
 15 39  1  0
 16 40  1  0
 19 41  1  0
 21 42  1  0
 21 43  1  0
 23 44  1  0
 24 45  1  0
M  CHG  1   9   1
M  END
>  <meeko>  (8) 
{"is_sidechain": [false], "free_energy": -9.039, "intermolecular_energy": -11.56, "internal_energy": -0.718}

$$$$
seed-2401
     RDKit          3D

 45 48  0  0  0  0  0  0  0  0999 V2000
  134.5260  125.2850  118.2940 F   0  0  0  0  0  0  0  0  0  0  0  0
  134.6680  124.8770  119.5620 C   0  0  0  0  0  0  0  0  0  0  0  0
  135.2620  123.6510  119.8220 C   0  0  0  0  0  0  0  0  0  0  0  0
  135.4080  123.2200  121.1420 C   0  0  0  0  0  0  0  0  0  0  0  0
  134.9570  124.0170  122.2100 C   0  0  0  0  0  0  0  0  0  0  0  0
  135.1030  123.5770  123.6570 C   0  0  2  0  0  0  0  0  0  0  0  0
  136.2580  122.5560  123.7520 C   0  0  0  0  0  0  0  0  0  0  0  0
  136.4770  122.0770  125.1730 C   0  0  0  0  0  0  0  0  0  0  0  0
  135.1970  121.5180  125.6930 N   0  0  0  0  0  0  0  0  0  0  0  0
  134.0800  122.5040  125.7130 C   0  0  0  0  0  0  0  0  0  0  0  0
  133.7980  123.0190  124.2990 C   0  0  1  0  0  0  0  0  0  0  0  0
  132.6730  124.0750  124.4020 C   0  0  0  0  0  0  0  0  0  0  0  0
  132.6860  124.7720  125.6400 O   0  0  0  0  0  0  0  0  0  0  0  0
  131.5330  124.8680  126.3670 C   0  0  0  0  0  0  0  0  0  0  0  0
  131.1800  126.1870  126.7170 C   0  0  0  0  0  0  0  0  0  0  0  0
  130.0190  126.4610  127.4460 C   0  0  0  0  0  0  0  0  0  0  0  0
  129.2350  125.3920  127.8120 C   0  0  0  0  0  0  0  0  0  0  0  0
  129.5760  124.1030  127.4800 C   0  0  0  0  0  0  0  0  0  0  0  0
  130.7180  123.8050  126.7620 C   0  0  0  0  0  0  0  0  0  0  0  0
  128.6700  123.1940  127.9320 O   0  0  0  0  0  0  0  0  0  0  0  0
  127.7390  124.0590  128.6220 C   0  0  0  0  0  0  0  0  0  0  0  0
  128.0750  125.4570  128.5160 O   0  0  0  0  0  0  0  0  0  0  0  0
  134.3620  125.2580  121.9190 C   0  0  0  0  0  0  0  0  0  0  0  0
  134.2190  125.6840  120.5970 C   0  0  0  0  0  0  0  0  0  0  0  0
  135.6163  123.0214  118.9925 H   0  0  0  0  0  0  0  0  0  0  0  0
  135.8801  122.2482  121.3488 H   0  0  0  0  0  0  0  0  0  0  0  0
  135.3323  124.4766  124.2471 H   0  0  0  0  0  0  0  0  0  0  0  0
  136.0190  121.6894  123.1180 H   0  0  0  0  0  0  0  0  0  0  0  0
  137.1796  123.0533  123.4153 H   0  0  0  0  0  0  0  0  0  0  0  0
  137.2530  121.2975  125.1851 H   0  0  0  0  0  0  0  0  0  0  0  0
  136.8027  122.9165  125.8048 H   0  0  0  0  0  0  0  0  0  0  0  0
  134.9290  120.6920  125.1370 H   0  0  0  0  0  0  0  0  0  0  0  0
  135.3530  121.1620  126.6470 H   0  0  0  0  0  0  0  0  0  0  0  0
  133.1756  122.0193  126.1094 H   0  0  0  0  0  0  0  0  0  0  0  0
  134.3645  123.3529  126.3520 H   0  0  0  0  0  0  0  0  0  0  0  0
  133.4599  122.2097  123.6352 H   0  0  0  0  0  0  0  0  0  0  0  0
  132.7983  124.8031  123.5870 H   0  0  0  0  0  0  0  0  0  0  0  0
  131.7121  123.5445  124.3298 H   0  0  0  0  0  0  0  0  0  0  0  0
  131.8318  127.0183  126.4101 H   0  0  0  0  0  0  0  0  0  0  0  0
  129.7434  127.4911  127.7162 H   0  0  0  0  0  0  0  0  0  0  0  0
  130.9765  122.7659  126.5100 H   0  0  0  0  0  0  0  0  0  0  0  0
  126.7374  123.9070  128.1933 H   0  0  0  0  0  0  0  0  0  0  0  0
  127.7772  123.7943  129.6890 H   0  0  0  0  0  0  0  0  0  0  0  0
  134.0064  125.8982  122.7398 H   0  0  0  0  0  0  0  0  0  0  0  0
  133.7522  126.6555  120.3772 H   0  0  0  0  0  0  0  0  0  0  0  0
  1  2  1  0
  2  3  1  0
  3  4  2  0
  4  5  1  0
  5  6  1  0
  6  7  1  0
  7  8  1  0
  8  9  1  0
  9 10  1  0
 10 11  1  0
 11 12  1  0
 12 13  1  0
 13 14  1  0
 14 15  1  0
 15 16  2  0
 16 17  1  0
 17 18  2  0
 18 19  1  0
 18 20  1  0
 20 21  1  0
 21 22  1  0
  5 23  2  0
 23 24  1  0
 24  2  2  0
 11  6  1  0
 19 14  2  0
 22 17  1  0
  3 25  1  0
  4 26  1  0
  6 27  1  1
  7 28  1  0
  7 29  1  0
  8 30  1  0
  8 31  1  0
  9 32  1  0
  9 33  1  0
 10 34  1  0
 10 35  1  0
 11 36  1  6
 12 37  1  0
 12 38  1  0
 15 39  1  0
 16 40  1  0
 19 41  1  0
 21 42  1  0
 21 43  1  0
 23 44  1  0
 24 45  1  0
M  CHG  1   9   1
M  END
>  <meeko>  (9) 
{"is_sidechain": [false], "free_energy": -9.034, "intermolecular_energy": -11.876, "internal_energy": -0.396}

$$$$
seed-2401
     RDKit          3D

 45 48  0  0  0  0  0  0  0  0999 V2000
  129.3670  128.8960  125.5420 F   0  0  0  0  0  0  0  0  0  0  0  0
  130.1180  127.7870  125.5070 C   0  0  0  0  0  0  0  0  0  0  0  0
  130.5180  127.1960  126.6960 C   0  0  0  0  0  0  0  0  0  0  0  0
  131.3060  126.0430  126.6630 C   0  0  0  0  0  0  0  0  0  0  0  0
  131.6970  125.4770  125.4360 C   0  0  0  0  0  0  0  0  0  0  0  0
  132.5510  124.2220  125.3680 C   0  0  2  0  0  0  0  0  0  0  0  0
  131.9050  123.1320  126.2500 C   0  0  0  0  0  0  0  0  0  0  0  0
  132.6940  121.8380  126.2240 C   0  0  0  0  0  0  0  0  0  0  0  0
  134.0980  122.1250  126.6340 N   0  0  0  0  0  0  0  0  0  0  0  0
  134.7930  123.0990  125.7450 C   0  0  0  0  0  0  0  0  0  0  0  0
  134.0490  124.4380  125.7380 C   0  0  1  0  0  0  0  0  0  0  0  0
  134.7870  125.3760  124.7560 C   0  0  0  0  0  0  0  0  0  0  0  0
  135.6040  124.6720  123.8310 O   0  0  0  0  0  0  0  0  0  0  0  0
  135.2900  124.7020  122.5010 C   0  0  0  0  0  0  0  0  0  0  0  0
  134.5580  125.8420  122.1080 C   0  0  0  0  0  0  0  0  0  0  0  0
  134.1730  126.0360  120.7790 C   0  0  0  0  0  0  0  0  0  0  0  0
  134.5320  125.0690  119.8680 C   0  0  0  0  0  0  0  0  0  0  0  0
  135.2390  123.9530  120.2450 C   0  0  0  0  0  0  0  0  0  0  0  0
  135.6310  123.7360  121.5520 C   0  0  0  0  0  0  0  0  0  0  0  0
  135.4970  123.1230  119.1980 O   0  0  0  0  0  0  0  0  0  0  0  0
  134.8330  123.8280  118.1240 C   0  0  0  0  0  0  0  0  0  0  0  0
  134.2520  125.0810  118.5390 O   0  0  0  0  0  0  0  0  0  0  0  0
  131.2740  126.0940  124.2460 C   0  0  0  0  0  0  0  0  0  0  0  0
  130.4870  127.2470  124.2840 C   0  0  0  0  0  0  0  0  0  0  0  0
  130.2165  127.6326  127.6596 H   0  0  0  0  0  0  0  0  0  0  0  0
  131.6238  125.5732  127.6055 H   0  0  0  0  0  0  0  0  0  0  0  0
  132.5744  123.9032  124.3155 H   0  0  0  0  0  0  0  0  0  0  0  0
  131.8559  123.4971  127.2865 H   0  0  0  0  0  0  0  0  0  0  0  0
  130.9004  122.9251  125.8526 H   0  0  0  0  0  0  0  0  0  0  0  0
  132.2447  121.1166  126.9224 H   0  0  0  0  0  0  0  0  0  0  0  0
  132.6798  121.4111  125.2103 H   0  0  0  0  0  0  0  0  0  0  0  0
  134.1120  122.4640  127.6080 H   0  0  0  0  0  0  0  0  0  0  0  0
  134.6270  121.2420  126.6480 H   0  0  0  0  0  0  0  0  0  0  0  0
  135.8186  123.2558  126.1103 H   0  0  0  0  0  0  0  0  0  0  0  0
  134.8146  122.6966  124.7215 H   0  0  0  0  0  0  0  0  0  0  0  0
  134.0470  124.9038  126.7345 H   0  0  0  0  0  0  0  0  0  0  0  0
  134.0394  125.9555  124.1945 H   0  0  0  0  0  0  0  0  0  0  0  0
  135.4450  126.0266  125.3507 H   0  0  0  0  0  0  0  0  0  0  0  0
  134.2847  126.5936  122.8633 H   0  0  0  0  0  0  0  0  0  0  0  0
  133.6051  126.9269  120.4728 H   0  0  0  0  0  0  0  0  0  0  0  0
  136.1923  122.8334  121.8352 H   0  0  0  0  0  0  0  0  0  0  0  0
  135.5684  124.0295  117.3312 H   0  0  0  0  0  0  0  0  0  0  0  0
  134.0106  123.1875  117.7726 H   0  0  0  0  0  0  0  0  0  0  0  0
  131.5655  125.6648  123.2761 H   0  0  0  0  0  0  0  0  0  0  0  0
  130.1613  127.7247  123.3482 H   0  0  0  0  0  0  0  0  0  0  0  0
  1  2  1  0
  2  3  1  0
  3  4  2  0
  4  5  1  0
  5  6  1  0
  6  7  1  0
  7  8  1  0
  8  9  1  0
  9 10  1  0
 10 11  1  0
 11 12  1  0
 12 13  1  0
 13 14  1  0
 14 15  1  0
 15 16  2  0
 16 17  1  0
 17 18  2  0
 18 19  1  0
 18 20  1  0
 20 21  1  0
 21 22  1  0
  5 23  2  0
 23 24  1  0
 24  2  2  0
 11  6  1  0
 19 14  2  0
 22 17  1  0
  3 25  1  0
  4 26  1  0
  6 27  1  6
  7 28  1  0
  7 29  1  0
  8 30  1  0
  8 31  1  0
  9 32  1  0
  9 33  1  0
 10 34  1  0
 10 35  1  0
 11 36  1  1
 12 37  1  0
 12 38  1  0
 15 39  1  0
 16 40  1  0
 19 41  1  0
 21 42  1  0
 21 43  1  0
 23 44  1  0
 24 45  1  0
M  CHG  1   9   1
M  END
>  <meeko>  (10) 
{"is_sidechain": [false], "free_energy": -8.978, "intermolecular_energy": -11.12, "internal_energy": -1.083}

$$$$
seed-2401
     RDKit          3D

 45 48  0  0  0  0  0  0  0  0999 V2000
  127.8430  130.1020  121.0010 F   0  0  0  0  0  0  0  0  0  0  0  0
  128.1350  129.3480  122.0670 C   0  0  0  0  0  0  0  0  0  0  0  0
  127.5100  128.1200  122.2280 C   0  0  0  0  0  0  0  0  0  0  0  0
  127.8100  127.3320  123.3420 C   0  0  0  0  0  0  0  0  0  0  0  0
  128.7390  127.7730  124.3020 C   0  0  0  0  0  0  0  0  0  0  0  0
  129.0870  126.9390  125.5230 C   0  0  2  0  0  0  0  0  0  0  0  0
  128.2750  127.4600  126.7290 C   0  0  0  0  0  0  0  0  0  0  0  0
  128.5570  126.6650  127.9890 C   0  0  0  0  0  0  0  0  0  0  0  0
  130.0230  126.6910  128.2530 N   0  0  0  0  0  0  0  0  0  0  0  0
  130.8390  126.1020  127.1530 C   0  0  0  0  0  0  0  0  0  0  0  0
  130.6080  126.8710  125.8490 C   0  0  1  0  0  0  0  0  0  0  0  0
  131.4350  126.1740  124.7440 C   0  0  0  0  0  0  0  0  0  0  0  0
  131.1760  124.7790  124.6610 O   0  0  0  0  0  0  0  0  0  0  0  0
  132.1870  123.8940  124.9170 C   0  0  0  0  0  0  0  0  0  0  0  0
  131.8090  122.8120  125.7390 C   0  0  0  0  0  0  0  0  0  0  0  0
  132.7190  121.8070  126.0810 C   0  0  0  0  0  0  0  0  0  0  0  0
  133.9990  121.9170  125.5890 C   0  0  0  0  0  0  0  0  0  0  0  0
  134.3740  122.9720  124.7930 C   0  0  0  0  0  0  0  0  0  0  0  0
  133.4960  123.9790  124.4410 C   0  0  0  0  0  0  0  0  0  0  0  0
  135.6780  122.8940  124.4090 O   0  0  0  0  0  0  0  0  0  0  0  0
  136.0890  121.6860  125.0900 C   0  0  0  0  0  0  0  0  0  0  0  0
  135.0160  121.0440  125.8090 O   0  0  0  0  0  0  0  0  0  0  0  0
  129.3620  129.0200  124.1120 C   0  0  0  0  0  0  0  0  0  0  0  0
  129.0590  129.8040  122.9970 C   0  0  0  0  0  0  0  0  0  0  0  0
  126.7818  127.7684  121.4822 H   0  0  0  0  0  0  0  0  0  0  0  0
  127.3153  126.3579  123.4696 H   0  0  0  0  0  0  0  0  0  0  0  0
  128.8130  125.8988  125.2929 H   0  0  0  0  0  0  0  0  0  0  0  0
  128.5390  128.5130  126.9068 H   0  0  0  0  0  0  0  0  0  0  0  0
  127.2064  127.3527  126.4913 H   0  0  0  0  0  0  0  0  0  0  0  0
  128.0202  127.1139  128.8377 H   0  0  0  0  0  0  0  0  0  0  0  0
  128.2181  125.6265  127.8602 H   0  0  0  0  0  0  0  0  0  0  0  0
  130.3250  127.6600  128.4360 H   0  0  0  0  0  0  0  0  0  0  0  0
  130.2130  126.1800  129.1270 H   0  0  0  0  0  0  0  0  0  0  0  0
  131.9041  126.1562  127.4224 H   0  0  0  0  0  0  0  0  0  0  0  0
  130.5398  125.0535  127.0077 H   0  0  0  0  0  0  0  0  0  0  0  0
  130.9425  127.9156  125.9323 H   0  0  0  0  0  0  0  0  0  0  0  0
  131.1887  126.6356  123.7764 H   0  0  0  0  0  0  0  0  0  0  0  0
  132.4983  126.2995  124.9964 H   0  0  0  0  0  0  0  0  0  0  0  0
  130.7780  122.7577  126.1185 H   0  0  0  0  0  0  0  0  0  0  0  0
  132.4229  120.9611  126.7188 H   0  0  0  0  0  0  0  0  0  0  0  0
  133.8177  124.8187  123.8074 H   0  0  0  0  0  0  0  0  0  0  0  0
  136.4804  120.9798  124.3429 H   0  0  0  0  0  0  0  0  0  0  0  0
  136.8518  121.9718  125.8293 H   0  0  0  0  0  0  0  0  0  0  0  0
  130.0948  129.3808  124.8488 H   0  0  0  0  0  0  0  0  0  0  0  0
  129.5501  130.7782  122.8563 H   0  0  0  0  0  0  0  0  0  0  0  0
  1  2  1  0
  2  3  1  0
  3  4  2  0
  4  5  1  0
  5  6  1  0
  6  7  1  0
  7  8  1  0
  8  9  1  0
  9 10  1  0
 10 11  1  0
 11 12  1  0
 12 13  1  0
 13 14  1  0
 14 15  1  0
 15 16  2  0
 16 17  1  0
 17 18  2  0
 18 19  1  0
 18 20  1  0
 20 21  1  0
 21 22  1  0
  5 23  2  0
 23 24  1  0
 24  2  2  0
 11  6  1  0
 19 14  2  0
 22 17  1  0
  3 25  1  0
  4 26  1  0
  6 27  1  6
  7 28  1  0
  7 29  1  0
  8 30  1  0
  8 31  1  0
  9 32  1  0
  9 33  1  0
 10 34  1  0
 10 35  1  0
 11 36  1  1
 12 37  1  0
 12 38  1  0
 15 39  1  0
 16 40  1  0
 19 41  1  0
 21 42  1  0
 21 43  1  0
 23 44  1  0
 24 45  1  0
M  CHG  1   9   1
M  END
>  <meeko>  (11) 
{"is_sidechain": [false], "free_energy": -8.907, "intermolecular_energy": -11.473, "internal_energy": -0.643}

$$$$
seed-2401
     RDKit          3D

 45 48  0  0  0  0  0  0  0  0999 V2000
  129.7410  126.0670  127.3160 F   0  0  0  0  0  0  0  0  0  0  0  0
  130.7360  125.2840  126.8810 C   0  0  0  0  0  0  0  0  0  0  0  0
  131.8810  125.8630  126.3550 C   0  0  0  0  0  0  0  0  0  0  0  0
  132.9190  125.0480  125.8970 C   0  0  0  0  0  0  0  0  0  0  0  0
  132.8130  123.6470  125.9630 C   0  0  0  0  0  0  0  0  0  0  0  0
  133.9250  122.7350  125.4740 C   0  0  2  0  0  0  0  0  0  0  0  0
  134.4730  121.9320  126.6740 C   0  0  0  0  0  0  0  0  0  0  0  0
  135.5820  120.9830  126.2640 C   0  0  0  0  0  0  0  0  0  0  0  0
  136.6530  121.7640  125.5810 N   0  0  0  0  0  0  0  0  0  0  0  0
  136.1860  122.4740  124.3570 C   0  0  0  0  0  0  0  0  0  0  0  0
  135.0690  123.4610  124.7070 C   0  0  1  0  0  0  0  0  0  0  0  0
  134.5950  124.1160  123.3890 C   0  0  0  0  0  0  0  0  0  0  0  0
  135.6230  124.1900  122.4110 O   0  0  0  0  0  0  0  0  0  0  0  0
  135.2980  124.0810  121.0870 C   0  0  0  0  0  0  0  0  0  0  0  0
  134.7290  125.2480  120.5360 C   0  0  0  0  0  0  0  0  0  0  0  0
  134.3570  125.3100  119.1900 C   0  0  0  0  0  0  0  0  0  0  0  0
  134.5630  124.1850  118.4240 C   0  0  0  0  0  0  0  0  0  0  0  0
  135.1100  123.0430  118.9560 C   0  0  0  0  0  0  0  0  0  0  0  0
  135.4850  122.9550  120.2830 C   0  0  0  0  0  0  0  0  0  0  0  0
  135.2330  122.0490  118.0350 O   0  0  0  0  0  0  0  0  0  0  0  0
  134.6610  122.6860  116.8700 C   0  0  0  0  0  0  0  0  0  0  0  0
  134.2690  124.0540  117.1040 O   0  0  0  0  0  0  0  0  0  0  0  0
  131.6430  123.0860  126.5050 C   0  0  0  0  0  0  0  0  0  0  0  0
  130.6080  123.9050  126.9620 C   0  0  0  0  0  0  0  0  0  0  0  0
  131.9714  126.9578  126.2987 H   0  0  0  0  0  0  0  0  0  0  0  0
  133.8282  125.5064  125.4807 H   0  0  0  0  0  0  0  0  0  0  0  0
  133.4837  122.0602  124.7257 H   0  0  0  0  0  0  0  0  0  0  0  0
  134.8665  122.6358  127.4222 H   0  0  0  0  0  0  0  0  0  0  0  0
  133.6482  121.3324  127.0865 H   0  0  0  0  0  0  0  0  0  0  0  0
  135.9955  120.4898  127.1561 H   0  0  0  0  0  0  0  0  0  0  0  0
  135.1854  120.2161  125.5824 H   0  0  0  0  0  0  0  0  0  0  0  0
  137.0650  122.4380  126.2440 H   0  0  0  0  0  0  0  0  0  0  0  0
  137.4210  121.1260  125.3310 H   0  0  0  0  0  0  0  0  0  0  0  0
  137.0291  123.0232  123.9125 H   0  0  0  0  0  0  0  0  0  0  0  0
  135.7978  121.7344  123.6412 H   0  0  0  0  0  0  0  0  0  0  0  0
  135.4274  124.2510  125.3833 H   0  0  0  0  0  0  0  0  0  0  0  0
  133.7634  123.5228  122.9808 H   0  0  0  0  0  0  0  0  0  0  0  0
  134.2853  125.1452  123.6229 H   0  0  0  0  0  0  0  0  0  0  0  0
  134.5748  126.1274  121.1786 H   0  0  0  0  0  0  0  0  0  0  0  0
  133.9170  126.2218  118.7599 H   0  0  0  0  0  0  0  0  0  0  0  0
  135.9162  122.0294  120.6920 H   0  0  0  0  0  0  0  0  0  0  0  0
  135.4066  122.6696  116.0614 H   0  0  0  0  0  0  0  0  0  0  0  0
  133.7515  122.1266  116.6057 H   0  0  0  0  0  0  0  0  0  0  0  0
  131.5420  121.9926  126.5696 H   0  0  0  0  0  0  0  0  0  0  0  0
  129.6956  123.4586  127.3842 H   0  0  0  0  0  0  0  0  0  0  0  0
  1  2  1  0
  2  3  1  0
  3  4  2  0
  4  5  1  0
  5  6  1  0
  6  7  1  0
  7  8  1  0
  8  9  1  0
  9 10  1  0
 10 11  1  0
 11 12  1  0
 12 13  1  0
 13 14  1  0
 14 15  1  0
 15 16  2  0
 16 17  1  0
 17 18  2  0
 18 19  1  0
 18 20  1  0
 20 21  1  0
 21 22  1  0
  5 23  2  0
 23 24  1  0
 24  2  2  0
 11  6  1  0
 19 14  2  0
 22 17  1  0
  3 25  1  0
  4 26  1  0
  6 27  1  6
  7 28  1  0
  7 29  1  0
  8 30  1  0
  8 31  1  0
  9 32  1  0
  9 33  1  0
 10 34  1  0
 10 35  1  0
 11 36  1  1
 12 37  1  0
 12 38  1  0
 15 39  1  0
 16 40  1  0
 19 41  1  0
 21 42  1  0
 21 43  1  0
 23 44  1  0
 24 45  1  0
M  CHG  1   9   1
M  END
>  <meeko>  (12) 
{"is_sidechain": [false], "free_energy": -8.891, "intermolecular_energy": -11.739, "internal_energy": -0.357}

$$$$
seed-2401
     RDKit          3D

 45 48  0  0  0  0  0  0  0  0999 V2000
  134.8790  125.3750  118.9260 F   0  0  0  0  0  0  0  0  0  0  0  0
  134.9520  124.8920  120.1730 C   0  0  0  0  0  0  0  0  0  0  0  0
  134.7000  125.7330  121.2470 C   0  0  0  0  0  0  0  0  0  0  0  0
  134.7810  125.2330  122.5490 C   0  0  0  0  0  0  0  0  0  0  0  0
  135.1150  123.8870  122.7800 C   0  0  0  0  0  0  0  0  0  0  0  0
  135.2090  123.3140  124.1840 C   0  0  2  0  0  0  0  0  0  0  0  0
  136.4650  122.4210  124.2740 C   0  0  0  0  0  0  0  0  0  0  0  0
  136.6390  121.8200  125.6550 C   0  0  0  0  0  0  0  0  0  0  0  0
  135.3990  121.0730  126.0110 N   0  0  0  0  0  0  0  0  0  0  0  0
  134.1750  121.9230  126.0350 C   0  0  0  0  0  0  0  0  0  0  0  0
  133.9360  122.5520  124.6600 C   0  0  1  0  0  0  0  0  0  0  0  0
  132.6920  123.4620  124.7730 C   0  0  0  0  0  0  0  0  0  0  0  0
  132.9520  124.6630  125.4850 O   0  0  0  0  0  0  0  0  0  0  0  0
  132.0120  125.6570  125.4900 C   0  0  0  0  0  0  0  0  0  0  0  0
  131.6180  126.0820  124.2050 C   0  0  0  0  0  0  0  0  0  0  0  0
  130.6530  127.0780  124.0320 C   0  0  0  0  0  0  0  0  0  0  0  0
  130.1040  127.6310  125.1670 C   0  0  0  0  0  0  0  0  0  0  0  0
  130.4880  127.2250  126.4220 C   0  0  0  0  0  0  0  0  0  0  0  0
  131.4410  126.2450  126.6200 C   0  0  0  0  0  0  0  0  0  0  0  0
  129.8260  127.8910  127.4070 O   0  0  0  0  0  0  0  0  0  0  0  0
  129.0090  128.7920  126.6250 C   0  0  0  0  0  0  0  0  0  0  0  0
  129.1560  128.6030  125.2020 O   0  0  0  0  0  0  0  0  0  0  0  0
  135.3610  123.0550  121.6730 C   0  0  0  0  0  0  0  0  0  0  0  0
  135.2800  123.5590  120.3730 C   0  0  0  0  0  0  0  0  0  0  0  0
  134.4379  126.7873  121.0745 H   0  0  0  0  0  0  0  0  0  0  0  0
  134.5816  125.8988  123.4016 H   0  0  0  0  0  0  0  0  0  0  0  0
  135.2895  124.1658  124.8753 H   0  0  0  0  0  0  0  0  0  0  0  0
  136.3739  121.6057  123.5412 H   0  0  0  0  0  0  0  0  0  0  0  0
  137.3433  123.0492  124.0646 H   0  0  0  0  0  0  0  0  0  0  0  0
  137.4978  121.1326  125.6540 H   0  0  0  0  0  0  0  0  0  0  0  0
  136.8203  122.6175  126.3906 H   0  0  0  0  0  0  0  0  0  0  0  0
  135.2690  120.2860  125.3570 H   0  0  0  0  0  0  0  0  0  0  0  0
  135.5280  120.6370  126.9350 H   0  0  0  0  0  0  0  0  0  0  0  0
  133.3079  121.3025  126.3055 H   0  0  0  0  0  0  0  0  0  0  0  0
  134.3114  122.7247  126.7757 H   0  0  0  0  0  0  0  0  0  0  0  0
  133.7428  121.7856  123.8949 H   0  0  0  0  0  0  0  0  0  0  0  0
  132.3525  123.7208  123.7592 H   0  0  0  0  0  0  0  0  0  0  0  0
  131.9241  122.9058  125.3307 H   0  0  0  0  0  0  0  0  0  0  0  0
  132.0797  125.6200  123.3199 H   0  0  0  0  0  0  0  0  0  0  0  0
  130.3443  127.4071  123.0288 H   0  0  0  0  0  0  0  0  0  0  0  0
  131.7397  125.9384  127.6333 H   0  0  0  0  0  0  0  0  0  0  0  0
  127.9545  128.6287  126.8922 H   0  0  0  0  0  0  0  0  0  0  0  0
  129.3399  129.8156  126.8546 H   0  0  0  0  0  0  0  0  0  0  0  0
  135.6195  121.9978  121.8326 H   0  0  0  0  0  0  0  0  0  0  0  0
  135.4753  122.9025  119.5123 H   0  0  0  0  0  0  0  0  0  0  0  0
  1  2  1  0
  2  3  1  0
  3  4  2  0
  4  5  1  0
  5  6  1  0
  6  7  1  0
  7  8  1  0
  8  9  1  0
  9 10  1  0
 10 11  1  0
 11 12  1  0
 12 13  1  0
 13 14  1  0
 14 15  1  0
 15 16  2  0
 16 17  1  0
 17 18  2  0
 18 19  1  0
 18 20  1  0
 20 21  1  0
 21 22  1  0
  5 23  2  0
 23 24  1  0
 24  2  2  0
 11  6  1  0
 19 14  2  0
 22 17  1  0
  3 25  1  0
  4 26  1  0
  6 27  1  1
  7 28  1  0
  7 29  1  0
  8 30  1  0
  8 31  1  0
  9 32  1  0
  9 33  1  0
 10 34  1  0
 10 35  1  0
 11 36  1  6
 12 37  1  0
 12 38  1  0
 15 39  1  0
 16 40  1  0
 19 41  1  0
 21 42  1  0
 21 43  1  0
 23 44  1  0
 24 45  1  0
M  CHG  1   9   1
M  END
>  <meeko>  (13) 
{"is_sidechain": [false], "free_energy": -8.828, "intermolecular_energy": -11.049, "internal_energy": -0.969}

$$$$
seed-2401
     RDKit          3D

 45 48  0  0  0  0  0  0  0  0999 V2000
  127.9710  130.1490  121.1470 F   0  0  0  0  0  0  0  0  0  0  0  0
  128.2270  129.3480  122.1900 C   0  0  0  0  0  0  0  0  0  0  0  0
  129.1500  129.7450  123.1460 C   0  0  0  0  0  0  0  0  0  0  0  0
  129.4220  128.9100  124.2320 C   0  0  0  0  0  0  0  0  0  0  0  0
  128.7690  127.6710  124.3640 C   0  0  0  0  0  0  0  0  0  0  0  0
  129.0420  126.7410  125.5340 C   0  0  2  0  0  0  0  0  0  0  0  0
  128.1960  127.2000  126.7420 C   0  0  0  0  0  0  0  0  0  0  0  0
  128.4030  126.3100  127.9520 C   0  0  0  0  0  0  0  0  0  0  0  0
  129.8570  126.2710  128.2740 N   0  0  0  0  0  0  0  0  0  0  0  0
  130.7010  125.7370  127.1680 C   0  0  0  0  0  0  0  0  0  0  0  0
  130.5460  126.6030  125.9150 C   0  0  1  0  0  0  0  0  0  0  0  0
  131.3990  125.9610  124.7960 C   0  0  0  0  0  0  0  0  0  0  0  0
  132.7650  126.3470  124.8560 O   0  0  0  0  0  0  0  0  0  0  0  0
  133.7340  125.3820  124.8620 C   0  0  0  0  0  0  0  0  0  0  0  0
  134.8510  125.6850  124.0560 C   0  0  0  0  0  0  0  0  0  0  0  0
  135.9390  124.8120  123.9650 C   0  0  0  0  0  0  0  0  0  0  0  0
  135.8760  123.6430  124.6890 C   0  0  0  0  0  0  0  0  0  0  0  0
  134.7880  123.3400  125.4700 C   0  0  0  0  0  0  0  0  0  0  0  0
  133.6990  124.1840  125.5770 C   0  0  0  0  0  0  0  0  0  0  0  0
  134.9220  122.1440  126.1050 O   0  0  0  0  0  0  0  0  0  0  0  0
  136.2060  121.7110  125.6000 C   0  0  0  0  0  0  0  0  0  0  0  0
  136.8300  122.6780  124.7300 O   0  0  0  0  0  0  0  0  0  0  0  0
  127.8340  127.2950  123.3830 C   0  0  0  0  0  0  0  0  0  0  0  0
  127.5660  128.1330  122.2990 C   0  0  0  0  0  0  0  0  0  0  0  0
  129.6650  130.7122  123.0494 H   0  0  0  0  0  0  0  0  0  0  0  0
  130.1535  129.2241  124.9911 H   0  0  0  0  0  0  0  0  0  0  0  0
  128.7484  125.7292  125.2176 H   0  0  0  0  0  0  0  0  0  0  0  0
  128.4818  128.2291  127.0051 H   0  0  0  0  0  0  0  0  0  0  0  0
  127.1356  127.1423  126.4554 H   0  0  0  0  0  0  0  0  0  0  0  0
  127.8449  126.7150  128.8091 H   0  0  0  0  0  0  0  0  0  0  0  0
  128.0398  125.2943  127.7363 H   0  0  0  0  0  0  0  0  0  0  0  0
  130.1780  127.2150  128.5390 H   0  0  0  0  0  0  0  0  0  0  0  0
  129.9950  125.6940  129.1160 H   0  0  0  0  0  0  0  0  0  0  0  0
  131.7551  125.7393  127.4825 H   0  0  0  0  0  0  0  0  0  0  0  0
  130.3790  124.7111  126.9358 H   0  0  0  0  0  0  0  0  0  0  0  0
  130.9055  127.6283  126.0871 H   0  0  0  0  0  0  0  0  0  0  0  0
  131.3383  124.8668  124.8915 H   0  0  0  0  0  0  0  0  0  0  0  0
  130.9981  126.3089  123.8325 H   0  0  0  0  0  0  0  0  0  0  0  0
  134.8664  126.6268  123.4878 H   0  0  0  0  0  0  0  0  0  0  0  0
  136.8117  125.0500  123.3391 H   0  0  0  0  0  0  0  0  0  0  0  0
  132.8345  123.9207  126.2041 H   0  0  0  0  0  0  0  0  0  0  0  0
  136.8739  121.5272  126.4545 H   0  0  0  0  0  0  0  0  0  0  0  0
  136.0339  120.8007  125.0069 H   0  0  0  0  0  0  0  0  0  0  0  0
  127.3093  126.3322  123.4706 H   0  0  0  0  0  0  0  0  0  0  0  0
  126.8343  127.8314  121.5350 H   0  0  0  0  0  0  0  0  0  0  0  0
  1  2  1  0
  2  3  1  0
  3  4  2  0
  4  5  1  0
  5  6  1  0
  6  7  1  0
  7  8  1  0
  8  9  1  0
  9 10  1  0
 10 11  1  0
 11 12  1  0
 12 13  1  0
 13 14  1  0
 14 15  1  0
 15 16  2  0
 16 17  1  0
 17 18  2  0
 18 19  1  0
 18 20  1  0
 20 21  1  0
 21 22  1  0
  5 23  2  0
 23 24  1  0
 24  2  2  0
 11  6  1  0
 19 14  2  0
 22 17  1  0
  3 25  1  0
  4 26  1  0
  6 27  1  6
  7 28  1  0
  7 29  1  0
  8 30  1  0
  8 31  1  0
  9 32  1  0
  9 33  1  0
 10 34  1  0
 10 35  1  0
 11 36  1  1
 12 37  1  0
 12 38  1  0
 15 39  1  0
 16 40  1  0
 19 41  1  0
 21 42  1  0
 21 43  1  0
 23 44  1  0
 24 45  1  0
M  CHG  1   9   1
M  END
>  <meeko>  (14) 
{"is_sidechain": [false], "free_energy": -8.805, "intermolecular_energy": -11.27, "internal_energy": -0.719}

$$$$
seed-2401
     RDKit          3D

 45 48  0  0  0  0  0  0  0  0999 V2000
  134.9870  123.7900  117.7760 F   0  0  0  0  0  0  0  0  0  0  0  0
  134.9960  124.0640  119.0870 C   0  0  0  0  0  0  0  0  0  0  0  0
  135.6030  123.1790  119.9660 C   0  0  0  0  0  0  0  0  0  0  0  0
  135.6100  123.4600  121.3340 C   0  0  0  0  0  0  0  0  0  0  0  0
  135.0080  124.6310  121.8280 C   0  0  0  0  0  0  0  0  0  0  0  0
  135.0010  124.9650  123.3100 C   0  0  2  0  0  0  0  0  0  0  0  0
  136.4600  125.0700  123.8030 C   0  0  0  0  0  0  0  0  0  0  0  0
  136.5390  125.4170  125.2770 C   0  0  0  0  0  0  0  0  0  0  0  0
  135.7630  124.4050  126.0490 N   0  0  0  0  0  0  0  0  0  0  0  0
  134.3220  124.3440  125.6730 C   0  0  0  0  0  0  0  0  0  0  0  0
  134.1730  123.9840  124.1920 C   0  0  1  0  0  0  0  0  0  0  0  0
  132.6630  123.9950  123.8590 C   0  0  0  0  0  0  0  0  0  0  0  0
  131.8510  123.6690  124.9780 O   0  0  0  0  0  0  0  0  0  0  0  0
  131.1300  124.6560  125.5920 C   0  0  0  0  0  0  0  0  0  0  0  0
  130.4760  124.2410  126.7710 C   0  0  0  0  0  0  0  0  0  0  0  0
  129.7110  125.1320  127.5300 C   0  0  0  0  0  0  0  0  0  0  0  0
  129.6190  126.4290  127.0800 C   0  0  0  0  0  0  0  0  0  0  0  0
  130.2490  126.8380  125.9300 C   0  0  0  0  0  0  0  0  0  0  0  0
  131.0080  125.9780  125.1600 C   0  0  0  0  0  0  0  0  0  0  0  0
  130.0360  128.1550  125.6610 O   0  0  0  0  0  0  0  0  0  0  0  0
  129.1640  128.5170  126.7570 C   0  0  0  0  0  0  0  0  0  0  0  0
  128.9280  127.4340  127.6790 O   0  0  0  0  0  0  0  0  0  0  0  0
  134.4030  125.5140  120.9150 C   0  0  0  0  0  0  0  0  0  0  0  0
  134.3980  125.2280  119.5480 C   0  0  0  0  0  0  0  0  0  0  0  0
  136.0762  122.2609  119.5876 H   0  0  0  0  0  0  0  0  0  0  0  0
  136.0910  122.7587  122.0317 H   0  0  0  0  0  0  0  0  0  0  0  0
  134.4848  125.9300  123.4209 H   0  0  0  0  0  0  0  0  0  0  0  0
  136.9607  124.1045  123.6383 H   0  0  0  0  0  0  0  0  0  0  0  0
  136.9520  125.8754  123.2380 H   0  0  0  0  0  0  0  0  0  0  0  0
  137.5892  125.4062  125.6039 H   0  0  0  0  0  0  0  0  0  0  0  0
  136.1213  126.4200  125.4486 H   0  0  0  0  0  0  0  0  0  0  0  0
  136.1970  123.4760  125.9360 H   0  0  0  0  0  0  0  0  0  0  0  0
  135.8430  124.6200  127.0530 H   0  0  0  0  0  0  0  0  0  0  0  0
  133.8197  123.5799  126.2843 H   0  0  0  0  0  0  0  0  0  0  0  0
  133.8646  125.3288  125.8492 H   0  0  0  0  0  0  0  0  0  0  0  0
  134.5726  122.9816  123.9788 H   0  0  0  0  0  0  0  0  0  0  0  0
  132.3881  124.9999  123.5059 H   0  0  0  0  0  0  0  0  0  0  0  0
  132.4879  123.2301  123.0882 H   0  0  0  0  0  0  0  0  0  0  0  0
  130.5697  123.1955  127.0999 H   0  0  0  0  0  0  0  0  0  0  0  0
  129.2028  124.8088  128.4505 H   0  0  0  0  0  0  0  0  0  0  0  0
  131.4993  126.3230  124.2383 H   0  0  0  0  0  0  0  0  0  0  0  0
  129.6234  129.3509  127.3080 H   0  0  0  0  0  0  0  0  0  0  0  0
  128.1918  128.7931  126.3227 H   0  0  0  0  0  0  0  0  0  0  0  0
  133.9300  126.4373  121.2808 H   0  0  0  0  0  0  0  0  0  0  0  0
  133.9221  125.9224  118.8400 H   0  0  0  0  0  0  0  0  0  0  0  0
  1  2  1  0
  2  3  1  0
  3  4  2  0
  4  5  1  0
  5  6  1  0
  6  7  1  0
  7  8  1  0
  8  9  1  0
  9 10  1  0
 10 11  1  0
 11 12  1  0
 12 13  1  0
 13 14  1  0
 14 15  1  0
 15 16  2  0
 16 17  1  0
 17 18  2  0
 18 19  1  0
 18 20  1  0
 20 21  1  0
 21 22  1  0
  5 23  2  0
 23 24  1  0
 24  2  2  0
 11  6  1  0
 19 14  2  0
 22 17  1  0
  3 25  1  0
  4 26  1  0
  6 27  1  6
  7 28  1  0
  7 29  1  0
  8 30  1  0
  8 31  1  0
  9 32  1  0
  9 33  1  0
 10 34  1  0
 10 35  1  0
 11 36  1  1
 12 37  1  0
 12 38  1  0
 15 39  1  0
 16 40  1  0
 19 41  1  0
 21 42  1  0
 21 43  1  0
 23 44  1  0
 24 45  1  0
M  CHG  1   9   1
M  END
>  <meeko>  (15) 
{"is_sidechain": [false], "free_energy": -8.756, "intermolecular_energy": -11.365, "internal_energy": -0.564}

$$$$
seed-2401
     RDKit          3D

 45 48  0  0  0  0  0  0  0  0999 V2000
  136.0960  121.3470  128.2400 F   0  0  0  0  0  0  0  0  0  0  0  0
  135.6380  121.8530  127.0880 C   0  0  0  0  0  0  0  0  0  0  0  0
  135.3250  123.2020  127.0110 C   0  0  0  0  0  0  0  0  0  0  0  0
  134.8420  123.7320  125.8120 C   0  0  0  0  0  0  0  0  0  0  0  0
  134.6700  122.9100  124.6830 C   0  0  0  0  0  0  0  0  0  0  0  0
  134.1490  123.4580  123.3650 C   0  0  2  0  0  0  0  0  0  0  0  0
  135.3290  123.5800  122.3770 C   0  0  0  0  0  0  0  0  0  0  0  0
  134.8860  124.1090  121.0260 C   0  0  0  0  0  0  0  0  0  0  0  0
  134.1900  125.4110  121.2270 N   0  0  0  0  0  0  0  0  0  0  0  0
  132.9830  125.3170  122.0950 C   0  0  0  0  0  0  0  0  0  0  0  0
  133.3660  124.7990  123.4850 C   0  0  1  0  0  0  0  0  0  0  0  0
  132.0650  124.6710  124.3100 C   0  0  0  0  0  0  0  0  0  0  0  0
  132.1380  125.3450  125.5580 O   0  0  0  0  0  0  0  0  0  0  0  0
  131.0720  125.2890  126.4140 C   0  0  0  0  0  0  0  0  0  0  0  0
  130.7700  126.5160  127.0390 C   0  0  0  0  0  0  0  0  0  0  0  0
  129.6990  126.6340  127.9290 C   0  0  0  0  0  0  0  0  0  0  0  0
  128.9520  125.5050  128.1750 C   0  0  0  0  0  0  0  0  0  0  0  0
  129.2450  124.3050  127.5740 C   0  0  0  0  0  0  0  0  0  0  0  0
  130.2990  124.1600  126.6920 C   0  0  0  0  0  0  0  0  0  0  0  0
  128.3890  123.3150  127.9460 O   0  0  0  0  0  0  0  0  0  0  0  0
  127.5460  124.0250  128.8830 C   0  0  0  0  0  0  0  0  0  0  0  0
  127.8780  125.4230  129.0020 O   0  0  0  0  0  0  0  0  0  0  0  0
  135.0000  121.5470  124.7870 C   0  0  0  0  0  0  0  0  0  0  0  0
  135.4810  121.0220  125.9880 C   0  0  0  0  0  0  0  0  0  0  0  0
  135.4564  123.8511  127.8893 H   0  0  0  0  0  0  0  0  0  0  0  0
  134.5939  124.8019  125.7500 H   0  0  0  0  0  0  0  0  0  0  0  0
  133.4027  122.7427  122.9891 H   0  0  0  0  0  0  0  0  0  0  0  0
  136.0767  124.2672  122.7998 H   0  0  0  0  0  0  0  0  0  0  0  0
  135.7519  122.5757  122.2268 H   0  0  0  0  0  0  0  0  0  0  0  0
  135.7640  124.2547  120.3796 H   0  0  0  0  0  0  0  0  0  0  0  0
  134.2048  123.3901  120.5473 H   0  0  0  0  0  0  0  0  0  0  0  0
  134.8520  126.1010  121.6150 H   0  0  0  0  0  0  0  0  0  0  0  0
  133.9180  125.7870  120.3070 H   0  0  0  0  0  0  0  0  0  0  0  0
  132.5275  126.3135  122.1921 H   0  0  0  0  0  0  0  0  0  0  0  0
  132.2672  124.6181  121.6377 H   0  0  0  0  0  0  0  0  0  0  0  0
  134.0425  125.4949  124.0027 H   0  0  0  0  0  0  0  0  0  0  0  0
  131.2356  125.0983  123.7274 H   0  0  0  0  0  0  0  0  0  0  0  0
  131.9080  123.6024  124.5185 H   0  0  0  0  0  0  0  0  0  0  0  0
  131.3899  127.3984  126.8218 H   0  0  0  0  0  0  0  0  0  0  0  0
  129.4624  127.5925  128.4141 H   0  0  0  0  0  0  0  0  0  0  0  0
  130.5212  123.1890  126.2253 H   0  0  0  0  0  0  0  0  0  0  0  0
  126.5021  123.9414  128.5464 H   0  0  0  0  0  0  0  0  0  0  0  0
  127.7003  123.5679  129.8716 H   0  0  0  0  0  0  0  0  0  0  0  0
  134.8781  120.8885  123.9143 H   0  0  0  0  0  0  0  0  0  0  0  0
  135.7344  119.9541  126.0618 H   0  0  0  0  0  0  0  0  0  0  0  0
  1  2  1  0
  2  3  1  0
  3  4  2  0
  4  5  1  0
  5  6  1  0
  6  7  1  0
  7  8  1  0
  8  9  1  0
  9 10  1  0
 10 11  1  0
 11 12  1  0
 12 13  1  0
 13 14  1  0
 14 15  1  0
 15 16  2  0
 16 17  1  0
 17 18  2  0
 18 19  1  0
 18 20  1  0
 20 21  1  0
 21 22  1  0
  5 23  2  0
 23 24  1  0
 24  2  2  0
 11  6  1  0
 19 14  2  0
 22 17  1  0
  3 25  1  0
  4 26  1  0
  6 27  1  6
  7 28  1  0
  7 29  1  0
  8 30  1  0
  8 31  1  0
  9 32  1  0
  9 33  1  0
 10 34  1  0
 10 35  1  0
 11 36  1  1
 12 37  1  0
 12 38  1  0
 15 39  1  0
 16 40  1  0
 19 41  1  0
 21 42  1  0
 21 43  1  0
 23 44  1  0
 24 45  1  0
M  CHG  1   9   1
M  END
>  <meeko>  (16) 
{"is_sidechain": [false], "free_energy": -8.668, "intermolecular_energy": -11.36, "internal_energy": -0.461}

$$$$
seed-2401
     RDKit          3D

 45 48  0  0  0  0  0  0  0  0999 V2000
  134.9930  123.2500  117.5570 F   0  0  0  0  0  0  0  0  0  0  0  0
  135.0000  123.8000  118.7790 C   0  0  0  0  0  0  0  0  0  0  0  0
  134.3750  125.0210  118.9820 C   0  0  0  0  0  0  0  0  0  0  0  0
  134.3850  125.5990  120.2540 C   0  0  0  0  0  0  0  0  0  0  0  0
  135.0230  124.9530  121.3290 C   0  0  0  0  0  0  0  0  0  0  0  0
  135.0490  125.5550  122.7240 C   0  0  2  0  0  0  0  0  0  0  0  0
  136.5190  125.7240  123.1650 C   0  0  0  0  0  0  0  0  0  0  0  0
  136.6310  126.3350  124.5480 C   0  0  0  0  0  0  0  0  0  0  0  0
  135.8550  125.4980  125.5060 N   0  0  0  0  0  0  0  0  0  0  0  0
  134.4070  125.3930  125.1710 C   0  0  0  0  0  0  0  0  0  0  0  0
  134.2240  124.7680  123.7850 C   0  0  1  0  0  0  0  0  0  0  0  0
  132.7090  124.7440  123.4800 C   0  0  0  0  0  0  0  0  0  0  0  0
  132.0200  125.8580  124.0290 O   0  0  0  0  0  0  0  0  0  0  0  0
  130.9710  125.6450  124.8800 C   0  0  0  0  0  0  0  0  0  0  0  0
  129.9560  126.6200  124.7980 C   0  0  0  0  0  0  0  0  0  0  0  0
  128.8050  126.5400  125.5880 C   0  0  0  0  0  0  0  0  0  0  0  0
  128.7040  125.4740  126.4520 C   0  0  0  0  0  0  0  0  0  0  0  0
  129.6920  124.5240  126.5410 C   0  0  0  0  0  0  0  0  0  0  0  0
  130.8400  124.5800  125.7740 C   0  0  0  0  0  0  0  0  0  0  0  0
  129.4000  123.5540  127.4500 O   0  0  0  0  0  0  0  0  0  0  0  0
  128.1280  124.0270  127.9510 C   0  0  0  0  0  0  0  0  0  0  0  0
  127.6670  125.2250  127.2940 O   0  0  0  0  0  0  0  0  0  0  0  0
  135.6450  123.7140  121.0960 C   0  0  0  0  0  0  0  0  0  0  0  0
  135.6330  123.1410  119.8230 C   0  0  0  0  0  0  0  0  0  0  0  0
  133.8741  125.5317  118.1463 H   0  0  0  0  0  0  0  0  0  0  0  0
  133.8897  126.5677  120.4165 H   0  0  0  0  0  0  0  0  0  0  0  0
  134.5487  126.5328  122.6637 H   0  0  0  0  0  0  0  0  0  0  0  0
  137.0031  124.7363  123.1730 H   0  0  0  0  0  0  0  0  0  0  0  0
  137.0111  126.4029  122.4530 H   0  0  0  0  0  0  0  0  0  0  0  0
  137.6870  126.3653  124.8545 H   0  0  0  0  0  0  0  0  0  0  0  0
  136.2314  127.3598  124.5378 H   0  0  0  0  0  0  0  0  0  0  0  0
  136.2740  124.5570  125.5600 H   0  0  0  0  0  0  0  0  0  0  0  0
  135.9570  125.8930  126.4510 H   0  0  0  0  0  0  0  0  0  0  0  0
  133.9060  124.7638  125.9214 H   0  0  0  0  0  0  0  0  0  0  0  0
  133.9671  126.4012  125.1688 H   0  0  0  0  0  0  0  0  0  0  0  0
  134.6043  123.7363  123.7546 H   0  0  0  0  0  0  0  0  0  0  0  0
  132.5699  124.7475  122.3888 H   0  0  0  0  0  0  0  0  0  0  0  0
  132.2924  123.8364  123.9412 H   0  0  0  0  0  0  0  0  0  0  0  0
  130.0719  127.4608  124.0983 H   0  0  0  0  0  0  0  0  0  0  0  0
  128.0118  127.2992  125.5213 H   0  0  0  0  0  0  0  0  0  0  0  0
  131.6231  123.8128  125.8643 H   0  0  0  0  0  0  0  0  0  0  0  0
  127.3780  123.2362  127.8020 H   0  0  0  0  0  0  0  0  0  0  0  0
  128.2667  124.2710  129.0146 H   0  0  0  0  0  0  0  0  0  0  0  0
  136.1457  123.1912  121.9243 H   0  0  0  0  0  0  0  0  0  0  0  0
  136.1230  122.1717  119.6485 H   0  0  0  0  0  0  0  0  0  0  0  0
  1  2  1  0
  2  3  1  0
  3  4  2  0
  4  5  1  0
  5  6  1  0
  6  7  1  0
  7  8  1  0
  8  9  1  0
  9 10  1  0
 10 11  1  0
 11 12  1  0
 12 13  1  0
 13 14  1  0
 14 15  1  0
 15 16  2  0
 16 17  1  0
 17 18  2  0
 18 19  1  0
 18 20  1  0
 20 21  1  0
 21 22  1  0
  5 23  2  0
 23 24  1  0
 24  2  2  0
 11  6  1  0
 19 14  2  0
 22 17  1  0
  3 25  1  0
  4 26  1  0
  6 27  1  6
  7 28  1  0
  7 29  1  0
  8 30  1  0
  8 31  1  0
  9 32  1  0
  9 33  1  0
 10 34  1  0
 10 35  1  0
 11 36  1  1
 12 37  1  0
 12 38  1  0
 15 39  1  0
 16 40  1  0
 19 41  1  0
 21 42  1  0
 21 43  1  0
 23 44  1  0
 24 45  1  0
M  CHG  1   9   1
M  END
>  <meeko>  (17) 
{"is_sidechain": [false], "free_energy": -8.599, "intermolecular_energy": -11.081, "internal_energy": -0.654}

$$$$
seed-2401
     RDKit          3D

 45 48  0  0  0  0  0  0  0  0999 V2000
  135.3770  123.6080  117.7330 F   0  0  0  0  0  0  0  0  0  0  0  0
  135.3820  123.9730  119.0210 C   0  0  0  0  0  0  0  0  0  0  0  0
  134.6310  125.0680  119.4240 C   0  0  0  0  0  0  0  0  0  0  0  0
  134.6370  125.4540  120.7660 C   0  0  0  0  0  0  0  0  0  0  0  0
  135.3980  124.7430  121.7130 C   0  0  0  0  0  0  0  0  0  0  0  0
  135.4230  125.1380  123.1800 C   0  0  2  0  0  0  0  0  0  0  0  0
  135.9610  126.5810  123.2970 C   0  0  0  0  0  0  0  0  0  0  0  0
  136.0040  127.0560  124.7360 C   0  0  0  0  0  0  0  0  0  0  0  0
  136.8150  126.0940  125.5340 N   0  0  0  0  0  0  0  0  0  0  0  0
  136.2720  124.7060  125.5290 C   0  0  0  0  0  0  0  0  0  0  0  0
  136.2140  124.1610  124.1000 C   0  0  1  0  0  0  0  0  0  0  0  0
  135.5900  122.7480  124.1630 C   0  0  0  0  0  0  0  0  0  0  0  0
  134.2610  122.7120  123.6610 O   0  0  0  0  0  0  0  0  0  0  0  0
  133.2140  122.9040  124.5200 C   0  0  0  0  0  0  0  0  0  0  0  0
  133.2580  122.0920  125.6710 C   0  0  0  0  0  0  0  0  0  0  0  0
  132.2730  122.1770  126.6590 C   0  0  0  0  0  0  0  0  0  0  0  0
  131.2560  123.0830  126.4630 C   0  0  0  0  0  0  0  0  0  0  0  0
  131.2040  123.8730  125.3400 C   0  0  0  0  0  0  0  0  0  0  0  0
  132.1640  123.8070  124.3480 C   0  0  0  0  0  0  0  0  0  0  0  0
  130.1240  124.7010  125.3370 O   0  0  0  0  0  0  0  0  0  0  0  0
  129.4800  124.3100  126.5720 C   0  0  0  0  0  0  0  0  0  0  0  0
  130.2160  123.3100  127.3060 O   0  0  0  0  0  0  0  0  0  0  0  0
  136.1460  123.6340  121.2790 C   0  0  0  0  0  0  0  0  0  0  0  0
  136.1370  123.2520  119.9360 C   0  0  0  0  0  0  0  0  0  0  0  0
  134.0340  125.6291  118.6901 H   0  0  0  0  0  0  0  0  0  0  0  0
  134.0415  126.3217  121.0861 H   0  0  0  0  0  0  0  0  0  0  0  0
  134.3882  125.0799  123.5486 H   0  0  0  0  0  0  0  0  0  0  0  0
  136.9788  126.6154  122.8811 H   0  0  0  0  0  0  0  0  0  0  0  0
  135.2813  127.2432  122.7407 H   0  0  0  0  0  0  0  0  0  0  0  0
  136.4632  128.0545  124.7824 H   0  0  0  0  0  0  0  0  0  0  0  0
  134.9833  127.1121  125.1422 H   0  0  0  0  0  0  0  0  0  0  0  0
  137.7880  126.0930  125.1900 H   0  0  0  0  0  0  0  0  0  0  0  0
  136.8730  126.4320  126.5050 H   0  0  0  0  0  0  0  0  0  0  0  0
  136.9224  124.0601  126.1371 H   0  0  0  0  0  0  0  0  0  0  0  0
  135.2548  124.7193  125.9474 H   0  0  0  0  0  0  0  0  0  0  0  0
  137.2184  124.0814  123.6586 H   0  0  0  0  0  0  0  0  0  0  0  0
  136.2101  122.0627  123.5665 H   0  0  0  0  0  0  0  0  0  0  0  0
  135.5537  122.4479  125.2207 H   0  0  0  0  0  0  0  0  0  0  0  0
  134.0845  121.3767  125.7944 H   0  0  0  0  0  0  0  0  0  0  0  0
  132.3094  121.5444  127.5581 H   0  0  0  0  0  0  0  0  0  0  0  0
  132.1026  124.4444  123.4536 H   0  0  0  0  0  0  0  0  0  0  0  0
  129.3726  125.2014  127.2075 H   0  0  0  0  0  0  0  0  0  0  0  0
  128.5068  123.8706  126.3077 H   0  0  0  0  0  0  0  0  0  0  0  0
  136.7437  123.0623  122.0042 H   0  0  0  0  0  0  0  0  0  0  0  0
  136.7254  122.3837  119.6046 H   0  0  0  0  0  0  0  0  0  0  0  0
  1  2  1  0
  2  3  1  0
  3  4  2  0
  4  5  1  0
  5  6  1  0
  6  7  1  0
  7  8  1  0
  8  9  1  0
  9 10  1  0
 10 11  1  0
 11 12  1  0
 12 13  1  0
 13 14  1  0
 14 15  1  0
 15 16  2  0
 16 17  1  0
 17 18  2  0
 18 19  1  0
 18 20  1  0
 20 21  1  0
 21 22  1  0
  5 23  2  0
 23 24  1  0
 24  2  2  0
 11  6  1  0
 19 14  2  0
 22 17  1  0
  3 25  1  0
  4 26  1  0
  6 27  1  1
  7 28  1  0
  7 29  1  0
  8 30  1  0
  8 31  1  0
  9 32  1  0
  9 33  1  0
 10 34  1  0
 10 35  1  0
 11 36  1  6
 12 37  1  0
 12 38  1  0
 15 39  1  0
 16 40  1  0
 19 41  1  0
 21 42  1  0
 21 43  1  0
 23 44  1  0
 24 45  1  0
M  CHG  1   9   1
M  END
>  <meeko>  (18) 
{"is_sidechain": [false], "free_energy": -8.525, "intermolecular_energy": -11.452, "internal_energy": -0.192}

$$$$
seed-2401
     RDKit          3D

 45 48  0  0  0  0  0  0  0  0999 V2000
  128.0120  130.1290  121.0850 F   0  0  0  0  0  0  0  0  0  0  0  0
  128.2180  129.3460  122.1520 C   0  0  0  0  0  0  0  0  0  0  0  0
  129.1210  129.7440  123.1270 C   0  0  0  0  0  0  0  0  0  0  0  0
  129.3410  128.9270  124.2390 C   0  0  0  0  0  0  0  0  0  0  0  0
  128.6570  127.7060  124.3780 C   0  0  0  0  0  0  0  0  0  0  0  0
  128.8750  126.7970  125.5760 C   0  0  2  0  0  0  0  0  0  0  0  0
  128.1900  127.4280  126.8080 C   0  0  0  0  0  0  0  0  0  0  0  0
  128.3500  126.5690  128.0480 C   0  0  0  0  0  0  0  0  0  0  0  0
  129.8030  126.3300  128.2800 N   0  0  0  0  0  0  0  0  0  0  0  0
  130.4810  125.6300  127.1530 C   0  0  0  0  0  0  0  0  0  0  0  0
  130.3660  126.4550  125.8680 C   0  0  1  0  0  0  0  0  0  0  0  0
  131.0360  125.6470  124.7330 C   0  0  0  0  0  0  0  0  0  0  0  0
  132.2770  125.0760  125.1240 O   0  0  0  0  0  0  0  0  0  0  0  0
  133.2820  124.9620  124.2030 C   0  0  0  0  0  0  0  0  0  0  0  0
  133.6440  123.6310  123.9080 C   0  0  0  0  0  0  0  0  0  0  0  0
  134.6420  123.3390  122.9740 C   0  0  0  0  0  0  0  0  0  0  0  0
  135.2610  124.4010  122.3560 C   0  0  0  0  0  0  0  0  0  0  0  0
  134.9170  125.7000  122.6430 C   0  0  0  0  0  0  0  0  0  0  0  0
  133.9360  126.0160  123.5630 C   0  0  0  0  0  0  0  0  0  0  0  0
  135.6420  126.6000  121.9240 O   0  0  0  0  0  0  0  0  0  0  0  0
  136.5110  125.7150  121.1800 C   0  0  0  0  0  0  0  0  0  0  0  0
  136.2460  124.3180  121.4240 O   0  0  0  0  0  0  0  0  0  0  0  0
  127.7440  127.3290  123.3770 C   0  0  0  0  0  0  0  0  0  0  0  0
  127.5270  128.1480  122.2670 C   0  0  0  0  0  0  0  0  0  0  0  0
  129.6606  130.6971  123.0253 H   0  0  0  0  0  0  0  0  0  0  0  0
  130.0561  129.2419  125.0132 H   0  0  0  0  0  0  0  0  0  0  0  0
  128.4182  125.8262  125.3333 H   0  0  0  0  0  0  0  0  0  0  0  0
  128.6393  128.4139  126.9983 H   0  0  0  0  0  0  0  0  0  0  0  0
  127.1151  127.5162  126.5916 H   0  0  0  0  0  0  0  0  0  0  0  0
  127.9171  127.0878  128.9160 H   0  0  0  0  0  0  0  0  0  0  0  0
  127.8300  125.6097  127.9089 H   0  0  0  0  0  0  0  0  0  0  0  0
  130.2750  127.2270  128.4740 H   0  0  0  0  0  0  0  0  0  0  0  0
  129.9150  125.7750  129.1400 H   0  0  0  0  0  0  0  0  0  0  0  0
  131.5437  125.4895  127.4000 H   0  0  0  0  0  0  0  0  0  0  0  0
  129.9981  124.6542  126.9959 H   0  0  0  0  0  0  0  0  0  0  0  0
  130.8817  127.4220  125.9628 H   0  0  0  0  0  0  0  0  0  0  0  0
  130.3564  124.8372  124.4292 H   0  0  0  0  0  0  0  0  0  0  0  0
  131.2369  126.3423  123.9046 H   0  0  0  0  0  0  0  0  0  0  0  0
  133.1304  122.8061  124.4235 H   0  0  0  0  0  0  0  0  0  0  0  0
  134.9216  122.3007  122.7421 H   0  0  0  0  0  0  0  0  0  0  0  0
  133.6791  127.0626  123.7836 H   0  0  0  0  0  0  0  0  0  0  0  0
  136.3758  125.9138  120.1066 H   0  0  0  0  0  0  0  0  0  0  0  0
  137.5407  125.9143  121.5117 H   0  0  0  0  0  0  0  0  0  0  0  0
  127.1956  126.3799  123.4693 H   0  0  0  0  0  0  0  0  0  0  0  0
  126.8121  127.8451  121.4878 H   0  0  0  0  0  0  0  0  0  0  0  0
  1  2  1  0
  2  3  1  0
  3  4  2  0
  4  5  1  0
  5  6  1  0
  6  7  1  0
  7  8  1  0
  8  9  1  0
  9 10  1  0
 10 11  1  0
 11 12  1  0
 12 13  1  0
 13 14  1  0
 14 15  1  0
 15 16  2  0
 16 17  1  0
 17 18  2  0
 18 19  1  0
 18 20  1  0
 20 21  1  0
 21 22  1  0
  5 23  2  0
 23 24  1  0
 24  2  2  0
 11  6  1  0
 19 14  2  0
 22 17  1  0
  3 25  1  0
  4 26  1  0
  6 27  1  6
  7 28  1  0
  7 29  1  0
  8 30  1  0
  8 31  1  0
  9 32  1  0
  9 33  1  0
 10 34  1  0
 10 35  1  0
 11 36  1  1
 12 37  1  0
 12 38  1  0
 15 39  1  0
 16 40  1  0
 19 41  1  0
 21 42  1  0
 21 43  1  0
 23 44  1  0
 24 45  1  0
M  CHG  1   9   1
M  END
>  <meeko>  (19) 
{"is_sidechain": [false], "free_energy": -8.468, "intermolecular_energy": -10.851, "internal_energy": -0.723}

$$$$
seed-2401
     RDKit          3D

 45 48  0  0  0  0  0  0  0  0999 V2000
  130.2740  127.4210  131.7070 F   0  0  0  0  0  0  0  0  0  0  0  0
  130.2470  127.4750  130.3690 C   0  0  0  0  0  0  0  0  0  0  0  0
  129.3060  126.7290  129.6740 C   0  0  0  0  0  0  0  0  0  0  0  0
  129.2770  126.7790  128.2790 C   0  0  0  0  0  0  0  0  0  0  0  0
  130.1940  127.5780  127.5720 C   0  0  0  0  0  0  0  0  0  0  0  0
  130.1880  127.6540  126.0540 C   0  0  2  0  0  0  0  0  0  0  0  0
  128.7320  127.8340  125.5720 C   0  0  0  0  0  0  0  0  0  0  0  0
  128.6410  127.9340  124.0620 C   0  0  0  0  0  0  0  0  0  0  0  0
  129.2800  126.7280  123.4640 N   0  0  0  0  0  0  0  0  0  0  0  0
  130.7180  126.5730  123.8240 C   0  0  0  0  0  0  0  0  0  0  0  0
  130.8770  126.4530  125.3420 C   0  0  1  0  0  0  0  0  0  0  0  0
  132.3900  126.3540  125.6460 C   0  0  0  0  0  0  0  0  0  0  0  0
  133.1370  125.8340  124.5560 O   0  0  0  0  0  0  0  0  0  0  0  0
  134.0860  124.8770  124.7890 C   0  0  0  0  0  0  0  0  0  0  0  0
  135.3090  125.1060  124.1260 C   0  0  0  0  0  0  0  0  0  0  0  0
  136.3900  124.2320  124.2730 C   0  0  0  0  0  0  0  0  0  0  0  0
  136.2130  123.1370  125.0870 C   0  0  0  0  0  0  0  0  0  0  0  0
  135.0220  122.9050  125.7310 C   0  0  0  0  0  0  0  0  0  0  0  0
  133.9380  123.7520  125.6020 C   0  0  0  0  0  0  0  0  0  0  0  0
  135.0520  121.7740  126.4880 O   0  0  0  0  0  0  0  0  0  0  0  0
  136.3910  121.3000  126.2120 C   0  0  0  0  0  0  0  0  0  0  0  0
  137.1420  122.1830  125.3530 O   0  0  0  0  0  0  0  0  0  0  0  0
  131.1350  128.3280  128.3000 C   0  0  0  0  0  0  0  0  0  0  0  0
  131.1600  128.2740  129.6960 C   0  0  0  0  0  0  0  0  0  0  0  0
  128.5862  126.1011  130.2195 H   0  0  0  0  0  0  0  0  0  0  0  0
  128.5304  126.1884  127.7278 H   0  0  0  0  0  0  0  0  0  0  0  0
  130.8001  128.5231  125.7712 H   0  0  0  0  0  0  0  0  0  0  0  0
  128.1379  126.9710  125.9070 H   0  0  0  0  0  0  0  0  0  0  0  0
  128.3470  128.7722  125.9981 H   0  0  0  0  0  0  0  0  0  0  0  0
  127.5852  127.9831  123.7572 H   0  0  0  0  0  0  0  0  0  0  0  0
  129.1558  128.8420  123.7148 H   0  0  0  0  0  0  0  0  0  0  0  0
  128.7540  125.8850  123.7400 H   0  0  0  0  0  0  0  0  0  0  0  0
  129.1900  126.7790  122.4390 H   0  0  0  0  0  0  0  0  0  0  0  0
  131.1161  125.6664  123.3449 H   0  0  0  0  0  0  0  0  0  0  0  0
  131.2709  127.4578  123.4756 H   0  0  0  0  0  0  0  0  0  0  0  0
  130.3810  125.5509  125.7296 H   0  0  0  0  0  0  0  0  0  0  0  0
  132.7675  127.3597  125.8829 H   0  0  0  0  0  0  0  0  0  0  0  0
  132.5134  125.6622  126.4923 H   0  0  0  0  0  0  0  0  0  0  0  0
  135.4147  125.9901  123.4801 H   0  0  0  0  0  0  0  0  0  0  0  0
  137.3450  124.4127  123.7579 H   0  0  0  0  0  0  0  0  0  0  0  0
  132.9907  123.5468  126.1222 H   0  0  0  0  0  0  0  0  0  0  0  0
  136.9295  121.1992  127.1659 H   0  0  0  0  0  0  0  0  0  0  0  0
  136.2950  120.3380  125.6873 H   0  0  0  0  0  0  0  0  0  0  0  0
  131.8575  128.9626  127.7658 H   0  0  0  0  0  0  0  0  0  0  0  0
  131.9000  128.8621  130.2587 H   0  0  0  0  0  0  0  0  0  0  0  0
  1  2  1  0
  2  3  1  0
  3  4  2  0
  4  5  1  0
  5  6  1  0
  6  7  1  0
  7  8  1  0
  8  9  1  0
  9 10  1  0
 10 11  1  0
 11 12  1  0
 12 13  1  0
 13 14  1  0
 14 15  1  0
 15 16  2  0
 16 17  1  0
 17 18  2  0
 18 19  1  0
 18 20  1  0
 20 21  1  0
 21 22  1  0
  5 23  2  0
 23 24  1  0
 24  2  2  0
 11  6  1  0
 19 14  2  0
 22 17  1  0
  3 25  1  0
  4 26  1  0
  6 27  1  1
  7 28  1  0
  7 29  1  0
  8 30  1  0
  8 31  1  0
  9 32  1  0
  9 33  1  0
 10 34  1  0
 10 35  1  0
 11 36  1  1
 12 37  1  0
 12 38  1  0
 15 39  1  0
 16 40  1  0
 19 41  1  0
 21 42  1  0
 21 43  1  0
 23 44  1  0
 24 45  1  0
M  CHG  1   9   1
M  END
>  <meeko>  (20) 
{"is_sidechain": [false], "free_energy": -8.214, "intermolecular_energy": -10.588, "internal_energy": -0.672}

$$$$
