seed-2403
     RDKit          3D

 45 48  0  0  0  0  0  0  0  0999 V2000
  133.1860  120.4500  126.1310 F   0  0  0  0  0  0  0  0  0  0  0  0
  133.9180  121.5160  125.7830 C   0  0  0  0  0  0  0  0  0  0  0  0
  134.9270  121.3750  124.8410 C   0  0  0  0  0  0  0  0  0  0  0  0
  135.6950  122.4840  124.4810 C   0  0  0  0  0  0  0  0  0  0  0  0
  135.4570  123.7410  125.0640 C   0  0  0  0  0  0  0  0  0  0  0  0
  136.2750  124.9660  124.6920 C   0  0  2  0  0  0  0  0  0  0  0  0
  137.2350  125.2960  125.8550 C   0  0  0  0  0  0  0  0  0  0  0  0
  138.1010  126.5030  125.5530 C   0  0  0  0  0  0  0  0  0  0  0  0
  137.2160  127.6550  125.2190 N   0  0  0  0  0  0  0  0  0  0  0  0
  136.3430  127.4140  124.0360 C   0  0  0  0  0  0  0  0  0  0  0  0
  135.4310  126.2100  124.2830 C   0  0  1  0  0  0  0  0  0  0  0  0
  134.5990  125.9830  123.0000 C   0  0  0  0  0  0  0  0  0  0  0  0
  135.3490  126.2010  121.8130 O   0  0  0  0  0  0  0  0  0  0  0  0
  135.2270  125.3220  120.7730 C   0  0  0  0  0  0  0  0  0  0  0  0
  135.8380  124.0720  121.0010 C   0  0  0  0  0  0  0  0  0  0  0  0
  135.7910  123.0540  120.0450 C   0  0  0  0  0  0  0  0  0  0  0  0
  135.1280  123.3200  118.8690 C   0  0  0  0  0  0  0  0  0  0  0  0
  134.5360  124.5380  118.6370 C   0  0  0  0  0  0  0  0  0  0  0  0
  134.5700  125.5620  119.5650 C   0  0  0  0  0  0  0  0  0  0  0  0
  133.9310  124.5990  117.4200 O   0  0  0  0  0  0  0  0  0  0  0  0
  134.2470  123.2880  116.8950 C   0  0  0  0  0  0  0  0  0  0  0  0
  134.9740  122.4620  117.8280 O   0  0  0  0  0  0  0  0  0  0  0  0
  134.4260  123.8580  126.0130 C   0  0  0  0  0  0  0  0  0  0  0  0
  133.6600  122.7460  126.3710 C   0  0  0  0  0  0  0  0  0  0  0  0
  135.1207  120.3950  124.3805 H   0  0  0  0  0  0  0  0  0  0  0  0
  136.4945  122.3731  123.7336 H   0  0  0  0  0  0  0  0  0  0  0  0
  136.8408  124.7117  123.7836 H   0  0  0  0  0  0  0  0  0  0  0  0
  136.6412  125.5021  126.7577 H   0  0  0  0  0  0  0  0  0  0  0  0
  137.8983  124.4311  126.0032 H   0  0  0  0  0  0  0  0  0  0  0  0
  138.7126  126.7493  126.4335 H   0  0  0  0  0  0  0  0  0  0  0  0
  138.7667  126.2838  124.7052 H   0  0  0  0  0  0  0  0  0  0  0  0
  136.6400  127.8980  126.0400 H   0  0  0  0  0  0  0  0  0  0  0  0
  137.8020  128.4840  125.0460 H   0  0  0  0  0  0  0  0  0  0  0  0
  135.7250  128.3056  123.8538 H   0  0  0  0  0  0  0  0  0  0  0  0
  136.9766  127.2083  123.1607 H   0  0  0  0  0  0  0  0  0  0  0  0
  134.7419  126.3924  125.1208 H   0  0  0  0  0  0  0  0  0  0  0  0
  134.2312  124.9463  122.9982 H   0  0  0  0  0  0  0  0  0  0  0  0
  133.7723  126.7086  123.0080 H   0  0  0  0  0  0  0  0  0  0  0  0
  136.3627  123.8944  121.9514 H   0  0  0  0  0  0  0  0  0  0  0  0
  136.2655  122.0781  120.2255 H   0  0  0  0  0  0  0  0  0  0  0  0
  134.0956  126.5327  119.3586 H   0  0  0  0  0  0  0  0  0  0  0  0
  133.3067  122.7790  116.6365 H   0  0  0  0  0  0  0  0  0  0  0  0
  134.8926  123.4347  116.0165 H   0  0  0  0  0  0  0  0  0  0  0  0
  134.2208  124.8337  126.4776 H   0  0  0  0  0  0  0  0  0  0  0  0
  132.8562  122.8450  127.1154 H   0  0  0  0  0  0  0  0  0  0  0  0
  1  2  1  0
  2  3  1  0
  3  4  2  0
  4  5  1  0
  5  6  1  0
  6  7  1  0
  7  8  1  0
  8  9  1  0
  9 10  1  0
 10 11  1  0
 11 12  1  0
 12 13  1  0
 13 14  1  0
 14 15  1  0
 15 16  2  0
 16 17  1  0
 17 18  2  0
 18 19  1  0
 18 20  1  0
 20 21  1  0
 21 22  1  0
  5 23  2  0
 23 24  1  0
 24  2  2  0
 11  6  1  0
 19 14  2  0
 22 17  1  0
  3 25  1  0
  4 26  1  0
  6 27  1  6
  7 28  1  0
  7 29  1  0
  8 30  1  0
  8 31  1  0
  9 32  1  0
  9 33  1  0
 10 34  1  0
 10 35  1  0
 11 36  1  1
 12 37  1  0
 12 38  1  0
 15 39  1  0
 16 40  1  0
 19 41  1  0
 21 42  1  0
 21 43  1  0
 23 44  1  0
 24 45  1  0
M  CHG  1   9   1
M  END
>  <meeko>  (1) 
{"is_sidechain": [false], "free_energy": -10.448, "intermolecular_energy": -12.892, "internal_energy": -1.117}

$$$$
seed-2403
     RDKit          3D

 45 48  0  0  0  0  0  0  0  0999 V2000
  137.1450  120.2770  126.5550 F   0  0  0  0  0  0  0  0  0  0  0  0
  136.1390  121.1570  126.4800 C   0  0  0  0  0  0  0  0  0  0  0  0
  135.3120  121.1570  125.3660 C   0  0  0  0  0  0  0  0  0  0  0  0
  134.2640  122.0760  125.2820 C   0  0  0  0  0  0  0  0  0  0  0  0
  134.0410  123.0030  126.3160 C   0  0  0  0  0  0  0  0  0  0  0  0
  132.9080  124.0150  126.2550 C   0  0  2  0  0  0  0  0  0  0  0  0
  131.5670  123.2700  126.4280 C   0  0  0  0  0  0  0  0  0  0  0  0
  130.3830  124.2170  126.3920 C   0  0  0  0  0  0  0  0  0  0  0  0
  130.4280  124.9930  125.1210 N   0  0  0  0  0  0  0  0  0  0  0  0
  131.6660  125.8070  124.9620 C   0  0  0  0  0  0  0  0  0  0  0  0
  132.9030  124.9050  124.9770 C   0  0  1  0  0  0  0  0  0  0  0  0
  134.1470  125.8160  124.8680 C   0  0  0  0  0  0  0  0  0  0  0  0
  135.1910  125.2310  124.1020 O   0  0  0  0  0  0  0  0  0  0  0  0
  135.0370  125.0980  122.7500 C   0  0  0  0  0  0  0  0  0  0  0  0
  134.4050  126.1970  122.1320 C   0  0  0  0  0  0  0  0  0  0  0  0
  134.1870  126.2290  120.7520 C   0  0  0  0  0  0  0  0  0  0  0  0
  134.6090  125.1430  120.0190 C   0  0  0  0  0  0  0  0  0  0  0  0
  135.2190  124.0670  120.6160 C   0  0  0  0  0  0  0  0  0  0  0  0
  135.4450  124.0100  121.9770 C   0  0  0  0  0  0  0  0  0  0  0  0
  135.5620  123.1020  119.7190 O   0  0  0  0  0  0  0  0  0  0  0  0
  135.0600  123.6810  118.4930 C   0  0  0  0  0  0  0  0  0  0  0  0
  134.4880  124.9920  118.6750 O   0  0  0  0  0  0  0  0  0  0  0  0
  134.8900  122.9800  127.4370 C   0  0  0  0  0  0  0  0  0  0  0  0
  135.9370  122.0580  127.5150 C   0  0  0  0  0  0  0  0  0  0  0  0
  135.4811  120.4362  124.5525 H   0  0  0  0  0  0  0  0  0  0  0  0
  133.6072  122.0749  124.3996 H   0  0  0  0  0  0  0  0  0  0  0  0
  133.0642  124.7263  127.0794 H   0  0  0  0  0  0  0  0  0  0  0  0
  131.4604  122.5369  125.6149 H   0  0  0  0  0  0  0  0  0  0  0  0
  131.5771  122.7753  127.4105 H   0  0  0  0  0  0  0  0  0  0  0  0
  129.4471  123.6410  126.4406 H   0  0  0  0  0  0  0  0  0  0  0  0
  130.4266  124.9030  127.2507 H   0  0  0  0  0  0  0  0  0  0  0  0
  130.3230  124.3520  124.3200 H   0  0  0  0  0  0  0  0  0  0  0  0
  129.6070  125.6130  125.0810 H   0  0  0  0  0  0  0  0  0  0  0  0
  131.6236  126.3482  124.0053 H   0  0  0  0  0  0  0  0  0  0  0  0
  131.7340  126.5201  125.7968 H   0  0  0  0  0  0  0  0  0  0  0  0
  132.9030  124.2075  124.1264 H   0  0  0  0  0  0  0  0  0  0  0  0
  133.8495  126.7621  124.3923 H   0  0  0  0  0  0  0  0  0  0  0  0
  134.5318  125.9753  125.8861 H   0  0  0  0  0  0  0  0  0  0  0  0
  134.0769  127.0465  122.7490 H   0  0  0  0  0  0  0  0  0  0  0  0
  133.6974  127.0883  120.2704 H   0  0  0  0  0  0  0  0  0  0  0  0
  135.9304  123.1364  122.4365 H   0  0  0  0  0  0  0  0  0  0  0  0
  135.8917  123.7590  117.7773 H   0  0  0  0  0  0  0  0  0  0  0  0
  134.2583  123.0233  118.1259 H   0  0  0  0  0  0  0  0  0  0  0  0
  134.7286  123.6933  128.2586 H   0  0  0  0  0  0  0  0  0  0  0  0
  136.5985  122.0468  128.3938 H   0  0  0  0  0  0  0  0  0  0  0  0
  1  2  1  0
  2  3  1  0
  3  4  2  0
  4  5  1  0
  5  6  1  0
  6  7  1  0
  7  8  1  0
  8  9  1  0
  9 10  1  0
 10 11  1  0
 11 12  1  0
 12 13  1  0
 13 14  1  0
 14 15  1  0
 15 16  2  0
 16 17  1  0
 17 18  2  0
 18 19  1  0
 18 20  1  0
 20 21  1  0
 21 22  1  0
  5 23  2  0
 23 24  1  0
 24  2  2  0
 11  6  1  0
 19 14  2  0
 22 17  1  0
  3 25  1  0
  4 26  1  0
  6 27  1  1
  7 28  1  0
  7 29  1  0
  8 30  1  0
  8 31  1  0
  9 32  1  0
  9 33  1  0
 10 34  1  0
 10 35  1  0
 11 36  1  6
 12 37  1  0
 12 38  1  0
 15 39  1  0
 16 40  1  0
 19 41  1  0
 21 42  1  0
 21 43  1  0
 23 44  1  0
 24 45  1  0
M  CHG  1   9   1
M  END
>  <meeko>  (2) 
{"is_sidechain": [false], "free_energy": -9.771, "intermolecular_energy": -12.101, "internal_energy": -1.071}

$$$$
seed-2403
     RDKit          3D

 45 48  0  0  0  0  0  0  0  0999 V2000
  135.6450  121.7820  127.9270 F   0  0  0  0  0  0  0  0  0  0  0  0
  135.5070  122.1260  126.6400 C   0  0  0  0  0  0  0  0  0  0  0  0
  135.1560  121.1610  125.7080 C   0  0  0  0  0  0  0  0  0  0  0  0
  135.0160  121.5160  124.3650 C   0  0  0  0  0  0  0  0  0  0  0  0
  135.2270  122.8430  123.9490 C   0  0  0  0  0  0  0  0  0  0  0  0
  135.0810  123.2610  122.4950 C   0  0  2  0  0  0  0  0  0  0  0  0
  136.4800  123.2890  121.8430 C   0  0  0  0  0  0  0  0  0  0  0  0
  136.4170  123.6850  120.3800 C   0  0  0  0  0  0  0  0  0  0  0  0
  135.7250  125.0000  120.2700 N   0  0  0  0  0  0  0  0  0  0  0  0
  134.3310  124.9880  120.7970 C   0  0  0  0  0  0  0  0  0  0  0  0
  134.3270  124.6060  122.2800 C   0  0  1  0  0  0  0  0  0  0  0  0
  132.8530  124.5560  122.7450 C   0  0  0  0  0  0  0  0  0  0  0  0
  132.6070  125.3730  123.8810 O   0  0  0  0  0  0  0  0  0  0  0  0
  131.7680  124.9200  124.8620 C   0  0  0  0  0  0  0  0  0  0  0  0
  132.1110  123.6500  125.3710 C   0  0  0  0  0  0  0  0  0  0  0  0
  131.3670  123.0510  126.3920 C   0  0  0  0  0  0  0  0  0  0  0  0
  130.2840  123.7470  126.8780 C   0  0  0  0  0  0  0  0  0  0  0  0
  129.9420  124.9820  126.3830 C   0  0  0  0  0  0  0  0  0  0  0  0
  130.6590  125.5950  125.3730 C   0  0  0  0  0  0  0  0  0  0  0  0
  128.8450  125.5030  126.9980 O   0  0  0  0  0  0  0  0  0  0  0  0
  128.5140  124.4320  127.9120 C   0  0  0  0  0  0  0  0  0  0  0  0
  129.4470  123.3330  127.8650 O   0  0  0  0  0  0  0  0  0  0  0  0
  135.5770  123.8030  124.9150 C   0  0  0  0  0  0  0  0  0  0  0  0
  135.7170  123.4430  126.2570 C   0  0  0  0  0  0  0  0  0  0  0  0
  134.9887  120.1211  126.0252 H   0  0  0  0  0  0  0  0  0  0  0  0
  134.7381  120.7508  123.6253 H   0  0  0  0  0  0  0  0  0  0  0  0
  134.4414  122.5115  122.0059 H   0  0  0  0  0  0  0  0  0  0  0  0
  137.1080  124.0146  122.3807 H   0  0  0  0  0  0  0  0  0  0  0  0
  136.9032  122.2754  121.9029 H   0  0  0  0  0  0  0  0  0  0  0  0
  137.4363  123.7682  119.9749 H   0  0  0  0  0  0  0  0  0  0  0  0
  135.8663  122.9230  119.8090 H   0  0  0  0  0  0  0  0  0  0  0  0
  136.2790  125.7240  120.7520 H   0  0  0  0  0  0  0  0  0  0  0  0
  135.7110  125.2860  119.2810 H   0  0  0  0  0  0  0  0  0  0  0  0
  133.8897  125.9886  120.6788 H   0  0  0  0  0  0  0  0  0  0  0  0
  133.7423  124.2479  120.2352 H   0  0  0  0  0  0  0  0  0  0  0  0
  134.8628  125.3493  122.8886 H   0  0  0  0  0  0  0  0  0  0  0  0
  132.2120  124.8993  121.9196 H   0  0  0  0  0  0  0  0  0  0  0  0
  132.6300  123.5170  123.0292 H   0  0  0  0  0  0  0  0  0  0  0  0
  132.9813  123.1202  124.9563 H   0  0  0  0  0  0  0  0  0  0  0  0
  131.6368  122.0621  126.7911 H   0  0  0  0  0  0  0  0  0  0  0  0
  130.3653  126.5816  124.9851 H   0  0  0  0  0  0  0  0  0  0  0  0
  128.5026  124.8368  128.9347 H   0  0  0  0  0  0  0  0  0  0  0  0
  127.5318  124.0386  127.6110 H   0  0  0  0  0  0  0  0  0  0  0  0
  135.7420  124.8471  124.6108 H   0  0  0  0  0  0  0  0  0  0  0  0
  135.9923  124.1996  127.0066 H   0  0  0  0  0  0  0  0  0  0  0  0
  1  2  1  0
  2  3  1  0
  3  4  2  0
  4  5  1  0
  5  6  1  0
  6  7  1  0
  7  8  1  0
  8  9  1  0
  9 10  1  0
 10 11  1  0
 11 12  1  0
 12 13  1  0
 13 14  1  0
 14 15  1  0
 15 16  2  0
 16 17  1  0
 17 18  2  0
 18 19  1  0
 18 20  1  0
 20 21  1  0
 21 22  1  0
  5 23  2  0
 23 24  1  0
 24  2  2  0
 11  6  1  0
 19 14  2  0
 22 17  1  0
  3 25  1  0
  4 26  1  0
  6 27  1  6
  7 28  1  0
  7 29  1  0
  8 30  1  0
  8 31  1  0
  9 32  1  0
  9 33  1  0
 10 34  1  0
 10 35  1  0
 11 36  1  1
 12 37  1  0
 12 38  1  0
 15 39  1  0
 16 40  1  0
 19 41  1  0
 21 42  1  0
 21 43  1  0
 23 44  1  0
 24 45  1  0
M  CHG  1   9   1
M  END
>  <meeko>  (3) 
{"is_sidechain": [false], "free_energy": -9.38, "intermolecular_energy": -11.345, "internal_energy": -1.346}

$$$$
seed-2403
     RDKit          3D

 45 48  0  0  0  0  0  0  0  0999 V2000
  129.7860  125.5680  127.2760 F   0  0  0  0  0  0  0  0  0  0  0  0
  130.8440  124.8640  126.8530 C   0  0  0  0  0  0  0  0  0  0  0  0
  130.7720  123.4790  126.8130 C   0  0  0  0  0  0  0  0  0  0  0  0
  131.8760  122.7420  126.3760 C   0  0  0  0  0  0  0  0  0  0  0  0
  133.0580  123.3910  125.9780 C   0  0  0  0  0  0  0  0  0  0  0  0
  134.2740  122.6180  125.4970 C   0  0  2  0  0  0  0  0  0  0  0  0
  135.1030  122.1810  126.7250 C   0  0  0  0  0  0  0  0  0  0  0  0
  136.3320  121.3870  126.3280 C   0  0  0  0  0  0  0  0  0  0  0  0
  137.1380  122.1980  125.3730 N   0  0  0  0  0  0  0  0  0  0  0  0
  136.4050  122.5560  124.1250 C   0  0  0  0  0  0  0  0  0  0  0  0
  135.1540  123.3740  124.4580 C   0  0  1  0  0  0  0  0  0  0  0  0
  134.4160  123.6580  123.1300 C   0  0  0  0  0  0  0  0  0  0  0  0
  135.2540  124.2560  122.1520 O   0  0  0  0  0  0  0  0  0  0  0  0
  135.1040  123.9100  120.8380 C   0  0  0  0  0  0  0  0  0  0  0  0
  134.6930  124.9720  120.0060 C   0  0  0  0  0  0  0  0  0  0  0  0
  134.5100  124.7910  118.6320 C   0  0  0  0  0  0  0  0  0  0  0  0
  134.7420  123.5330  118.1230 C   0  0  0  0  0  0  0  0  0  0  0  0
  135.1350  122.4930  118.9290 C   0  0  0  0  0  0  0  0  0  0  0  0
  135.3220  122.6450  120.2890 C   0  0  0  0  0  0  0  0  0  0  0  0
  135.3140  121.3370  118.2340 O   0  0  0  0  0  0  0  0  0  0  0  0
  134.9480  121.7630  116.9010 C   0  0  0  0  0  0  0  0  0  0  0  0
  134.6200  123.1650  116.8210 O   0  0  0  0  0  0  0  0  0  0  0  0
  133.1030  124.7960  126.0240 C   0  0  0  0  0  0  0  0  0  0  0  0
  131.9980  125.5290  126.4610 C   0  0  0  0  0  0  0  0  0  0  0  0
  129.8510  122.9639  127.1236 H   0  0  0  0  0  0  0  0  0  0  0  0
  131.8197  121.6439  126.3431 H   0  0  0  0  0  0  0  0  0  0  0  0
  133.9022  121.7400  124.9485 H   0  0  0  0  0  0  0  0  0  0  0  0
  135.4225  123.0783  127.2752 H   0  0  0  0  0  0  0  0  0  0  0  0
  134.4690  121.5352  127.3503 H   0  0  0  0  0  0  0  0  0  0  0  0
  136.9326  121.1633  127.2220 H   0  0  0  0  0  0  0  0  0  0  0  0
  136.0298  120.4415  125.8540 H   0  0  0  0  0  0  0  0  0  0  0  0
  137.4730  123.0530  125.8420 H   0  0  0  0  0  0  0  0  0  0  0  0
  137.9900  121.6740  125.1270 H   0  0  0  0  0  0  0  0  0  0  0  0
  137.0643  123.1500  123.4749 H   0  0  0  0  0  0  0  0  0  0  0  0
  136.1014  121.6319  123.6114 H   0  0  0  0  0  0  0  0  0  0  0  0
  135.4131  124.3340  124.9284 H   0  0  0  0  0  0  0  0  0  0  0  0
  134.0327  122.7074  122.7307 H   0  0  0  0  0  0  0  0  0  0  0  0
  133.6031  124.3664  123.3477 H   0  0  0  0  0  0  0  0  0  0  0  0
  134.5127  125.9633  120.4474 H   0  0  0  0  0  0  0  0  0  0  0  0
  134.1932  125.6208  117.9832 H   0  0  0  0  0  0  0  0  0  0  0  0
  135.6323  121.7979  120.9184 H   0  0  0  0  0  0  0  0  0  0  0  0
  135.7932  121.5629  116.2260 H   0  0  0  0  0  0  0  0  0  0  0  0
  134.0472  121.2004  116.6146 H   0  0  0  0  0  0  0  0  0  0  0  0
  134.0174  125.3223  125.7128 H   0  0  0  0  0  0  0  0  0  0  0  0
  132.0415  126.6276  126.4945 H   0  0  0  0  0  0  0  0  0  0  0  0
  1  2  1  0
  2  3  1  0
  3  4  2  0
  4  5  1  0
  5  6  1  0
  6  7  1  0
  7  8  1  0
  8  9  1  0
  9 10  1  0
 10 11  1  0
 11 12  1  0
 12 13  1  0
 13 14  1  0
 14 15  1  0
 15 16  2  0
 16 17  1  0
 17 18  2  0
 18 19  1  0
 18 20  1  0
 20 21  1  0
 21 22  1  0
  5 23  2  0
 23 24  1  0
 24  2  2  0
 11  6  1  0
 19 14  2  0
 22 17  1  0
  3 25  1  0
  4 26  1  0
  6 27  1  6
  7 28  1  0
  7 29  1  0
  8 30  1  0
  8 31  1  0
  9 32  1  0
  9 33  1  0
 10 34  1  0
 10 35  1  0
 11 36  1  1
 12 37  1  0
 12 38  1  0
 15 39  1  0
 16 40  1  0
 19 41  1  0
 21 42  1  0
 21 43  1  0
 23 44  1  0
 24 45  1  0
M  CHG  1   9   1
M  END
>  <meeko>  (4) 
{"is_sidechain": [false], "free_energy": -9.379, "intermolecular_energy": -12.122, "internal_energy": -0.568}

$$$$
seed-2403
     RDKit          3D

 45 48  0  0  0  0  0  0  0  0999 V2000
  135.3810  121.8340  128.1110 F   0  0  0  0  0  0  0  0  0  0  0  0
  135.3000  122.1500  126.8120 C   0  0  0  0  0  0  0  0  0  0  0  0
  135.1940  121.1390  125.8690 C   0  0  0  0  0  0  0  0  0  0  0  0
  135.1140  121.4650  124.5130 C   0  0  0  0  0  0  0  0  0  0  0  0
  135.1410  122.8080  124.0960 C   0  0  0  0  0  0  0  0  0  0  0  0
  135.0550  123.1940  122.6300 C   0  0  2  0  0  0  0  0  0  0  0  0
  136.4840  123.2700  122.0500 C   0  0  0  0  0  0  0  0  0  0  0  0
  136.4820  123.6370  120.5790 C   0  0  0  0  0  0  0  0  0  0  0  0
  135.7450  124.9210  120.4080 N   0  0  0  0  0  0  0  0  0  0  0  0
  134.3270  124.8600  120.8620 C   0  0  0  0  0  0  0  0  0  0  0  0
  134.2590  124.5040  122.3500 C   0  0  1  0  0  0  0  0  0  0  0  0
  132.7660  124.4010  122.7380 C   0  0  0  0  0  0  0  0  0  0  0  0
  132.0870  125.6460  122.6450 O   0  0  0  0  0  0  0  0  0  0  0  0
  131.5850  126.2210  123.7790 C   0  0  0  0  0  0  0  0  0  0  0  0
  132.3080  125.9140  124.9500 C   0  0  0  0  0  0  0  0  0  0  0  0
  131.9380  126.4360  126.1920 C   0  0  0  0  0  0  0  0  0  0  0  0
  130.8350  127.2590  126.2300 C   0  0  0  0  0  0  0  0  0  0  0  0
  130.1220  127.5570  125.0940 C   0  0  0  0  0  0  0  0  0  0  0  0
  130.4660  127.0530  123.8550 C   0  0  0  0  0  0  0  0  0  0  0  0
  129.0730  128.3870  125.3430 O   0  0  0  0  0  0  0  0  0  0  0  0
  129.1860  128.5450  126.7760 C   0  0  0  0  0  0  0  0  0  0  0  0
  130.3260  127.8600  127.3360 O   0  0  0  0  0  0  0  0  0  0  0  0
  135.2450  123.8140  125.0740 C   0  0  0  0  0  0  0  0  0  0  0  0
  135.3260  123.4830  126.4280 C   0  0  0  0  0  0  0  0  0  0  0  0
  135.1730  120.0861  126.1869 H   0  0  0  0  0  0  0  0  0  0  0  0
  135.0291  120.6637  123.7642 H   0  0  0  0  0  0  0  0  0  0  0  0
  134.4734  122.4095  122.1238 H   0  0  0  0  0  0  0  0  0  0  0  0
  137.0523  124.0309  122.6049 H   0  0  0  0  0  0  0  0  0  0  0  0
  136.9447  122.2763  122.1513 H   0  0  0  0  0  0  0  0  0  0  0  0
  137.5170  123.7543  120.2253 H   0  0  0  0  0  0  0  0  0  0  0  0
  135.9927  122.8433  119.9953 H   0  0  0  0  0  0  0  0  0  0  0  0
  136.2420  125.6750  120.9040 H   0  0  0  0  0  0  0  0  0  0  0  0
  135.7710  125.1890  119.4140 H   0  0  0  0  0  0  0  0  0  0  0  0
  133.8523  125.8392  120.7013 H   0  0  0  0  0  0  0  0  0  0  0  0
  133.8000  124.0859  120.2849 H   0  0  0  0  0  0  0  0  0  0  0  0
  134.7306  125.2794  122.9715 H   0  0  0  0  0  0  0  0  0  0  0  0
  132.2764  123.6822  122.0645 H   0  0  0  0  0  0  0  0  0  0  0  0
  132.7176  124.0743  123.7872 H   0  0  0  0  0  0  0  0  0  0  0  0
  133.1820  125.2493  124.8842 H   0  0  0  0  0  0  0  0  0  0  0  0
  132.5057  126.1987  127.1038 H   0  0  0  0  0  0  0  0  0  0  0  0
  129.8783  127.2987  122.9582 H   0  0  0  0  0  0  0  0  0  0  0  0
  129.2764  129.6175  127.0033 H   0  0  0  0  0  0  0  0  0  0  0  0
  128.2853  128.1015  127.2255 H   0  0  0  0  0  0  0  0  0  0  0  0
  135.2626  124.8708  124.7692 H   0  0  0  0  0  0  0  0  0  0  0  0
  135.4100  124.2752  127.1866 H   0  0  0  0  0  0  0  0  0  0  0  0
  1  2  1  0
  2  3  1  0
  3  4  2  0
  4  5  1  0
  5  6  1  0
  6  7  1  0
  7  8  1  0
  8  9  1  0
  9 10  1  0
 10 11  1  0
 11 12  1  0
 12 13  1  0
 13 14  1  0
 14 15  1  0
 15 16  2  0
 16 17  1  0
 17 18  2  0
 18 19  1  0
 18 20  1  0
 20 21  1  0
 21 22  1  0
  5 23  2  0
 23 24  1  0
 24  2  2  0
 11  6  1  0
 19 14  2  0
 22 17  1  0
  3 25  1  0
  4 26  1  0
  6 27  1  6
  7 28  1  0
  7 29  1  0
  8 30  1  0
  8 31  1  0
  9 32  1  0
  9 33  1  0
 10 34  1  0
 10 35  1  0
 11 36  1  1
 12 37  1  0
 12 38  1  0
 15 39  1  0
 16 40  1  0
 19 41  1  0
 21 42  1  0
 21 43  1  0
 23 44  1  0
 24 45  1  0
M  CHG  1   9   1
M  END
>  <meeko>  (5) 
{"is_sidechain": [false], "free_energy": -9.29, "intermolecular_energy": -11.695, "internal_energy": -0.885}

$$$$
seed-2403
     RDKit          3D

 45 48  0  0  0  0  0  0  0  0999 V2000
  134.2590  121.2920  126.5320 F   0  0  0  0  0  0  0  0  0  0  0  0
  133.4570  122.3640  126.5050 C   0  0  0  0  0  0  0  0  0  0  0  0
  134.0140  123.6340  126.5110 C   0  0  0  0  0  0  0  0  0  0  0  0
  133.1810  124.7550  126.4880 C   0  0  0  0  0  0  0  0  0  0  0  0
  131.7820  124.6070  126.4590 C   0  0  0  0  0  0  0  0  0  0  0  0
  130.8500  125.8060  126.4320 C   0  0  2  0  0  0  0  0  0  0  0  0
  129.7890  125.6360  127.5410 C   0  0  0  0  0  0  0  0  0  0  0  0
  128.8240  126.8050  127.5890 C   0  0  0  0  0  0  0  0  0  0  0  0
  128.2020  126.9660  126.2450 N   0  0  0  0  0  0  0  0  0  0  0  0
  129.1870  127.2340  125.1590 C   0  0  0  0  0  0  0  0  0  0  0  0
  130.1860  126.0800  125.0500 C   0  0  1  0  0  0  0  0  0  0  0  0
  131.2080  126.4490  123.9490 C   0  0  0  0  0  0  0  0  0  0  0  0
  131.2790  125.4750  122.9170 O   0  0  0  0  0  0  0  0  0  0  0  0
  132.5020  125.0180  122.5100 C   0  0  0  0  0  0  0  0  0  0  0  0
  132.8990  123.8130  123.1250 C   0  0  0  0  0  0  0  0  0  0  0  0
  134.1150  123.2010  122.8080 C   0  0  0  0  0  0  0  0  0  0  0  0
  134.9120  123.8220  121.8740 C   0  0  0  0  0  0  0  0  0  0  0  0
  134.5330  124.9990  121.2750 C   0  0  0  0  0  0  0  0  0  0  0  0
  133.3380  125.6260  121.5720 C   0  0  0  0  0  0  0  0  0  0  0  0
  135.4560  125.4480  120.3810 O   0  0  0  0  0  0  0  0  0  0  0  0
  136.4790  124.4340  120.5170 C   0  0  0  0  0  0  0  0  0  0  0  0
  136.1190  123.3820  121.4360 O   0  0  0  0  0  0  0  0  0  0  0  0
  131.2430  123.3080  126.4490 C   0  0  0  0  0  0  0  0  0  0  0  0
  132.0810  122.1910  126.4730 C   0  0  0  0  0  0  0  0  0  0  0  0
  135.1068  123.7580  126.5338 H   0  0  0  0  0  0  0  0  0  0  0  0
  133.6226  125.7625  126.4926 H   0  0  0  0  0  0  0  0  0  0  0  0
  131.4661  126.6980  126.6186 H   0  0  0  0  0  0  0  0  0  0  0  0
  129.2204  124.7139  127.3500 H   0  0  0  0  0  0  0  0  0  0  0  0
  130.3126  125.5881  128.5072 H   0  0  0  0  0  0  0  0  0  0  0  0
  128.0422  126.6092  128.3377 H   0  0  0  0  0  0  0  0  0  0  0  0
  129.3617  127.7239  127.8658 H   0  0  0  0  0  0  0  0  0  0  0  0
  127.6460  126.1280  126.0180 H   0  0  0  0  0  0  0  0  0  0  0  0
  127.5220  127.7390  126.2840 H   0  0  0  0  0  0  0  0  0  0  0  0
  128.6528  127.3427  124.2036 H   0  0  0  0  0  0  0  0  0  0  0  0
  129.7339  128.1593  125.3929 H   0  0  0  0  0  0  0  0  0  0  0  0
  129.6872  125.1415  124.7665 H   0  0  0  0  0  0  0  0  0  0  0  0
  130.9143  127.4115  123.5047 H   0  0  0  0  0  0  0  0  0  0  0  0
  132.1996  126.5045  124.4218 H   0  0  0  0  0  0  0  0  0  0  0  0
  132.2383  123.3449  123.8695 H   0  0  0  0  0  0  0  0  0  0  0  0
  134.4228  122.2596  123.2866 H   0  0  0  0  0  0  0  0  0  0  0  0
  133.0553  126.5715  121.0861 H   0  0  0  0  0  0  0  0  0  0  0  0
  136.6617  123.9872  119.5286 H   0  0  0  0  0  0  0  0  0  0  0  0
  137.3758  124.9270  120.9203 H   0  0  0  0  0  0  0  0  0  0  0  0
  130.1519  123.1706  126.4220 H   0  0  0  0  0  0  0  0  0  0  0  0
  131.6517  121.1783  126.4666 H   0  0  0  0  0  0  0  0  0  0  0  0
  1  2  1  0
  2  3  1  0
  3  4  2  0
  4  5  1  0
  5  6  1  0
  6  7  1  0
  7  8  1  0
  8  9  1  0
  9 10  1  0
 10 11  1  0
 11 12  1  0
 12 13  1  0
 13 14  1  0
 14 15  1  0
 15 16  2  0
 16 17  1  0
 17 18  2  0
 18 19  1  0
 18 20  1  0
 20 21  1  0
 21 22  1  0
  5 23  2  0
 23 24  1  0
 24  2  2  0
 11  6  1  0
 19 14  2  0
 22 17  1  0
  3 25  1  0
  4 26  1  0
  6 27  1  1
  7 28  1  0
  7 29  1  0
  8 30  1  0
  8 31  1  0
  9 32  1  0
  9 33  1  0
 10 34  1  0
 10 35  1  0
 11 36  1  6
 12 37  1  0
 12 38  1  0
 15 39  1  0
 16 40  1  0
 19 41  1  0
 21 42  1  0
 21 43  1  0
 23 44  1  0
 24 45  1  0
M  CHG  1   9   1
M  END
>  <meeko>  (6) 
{"is_sidechain": [false], "free_energy": -9.171, "intermolecular_energy": -10.98, "internal_energy": -1.452}

$$$$
seed-2403
     RDKit          3D

 45 48  0  0  0  0  0  0  0  0999 V2000
  135.6560  121.2520  128.1720 F   0  0  0  0  0  0  0  0  0  0  0  0
  135.5880  122.0240  127.0800 C   0  0  0  0  0  0  0  0  0  0  0  0
  135.0020  123.2790  127.1660 C   0  0  0  0  0  0  0  0  0  0  0  0
  134.9250  124.0840  126.0270 C   0  0  0  0  0  0  0  0  0  0  0  0
  135.4340  123.6350  124.7960 C   0  0  0  0  0  0  0  0  0  0  0  0
  135.3670  124.4880  123.5410 C   0  0  2  0  0  0  0  0  0  0  0  0
  136.4700  125.5670  123.6130 C   0  0  0  0  0  0  0  0  0  0  0  0
  136.4770  126.4550  122.3840 C   0  0  0  0  0  0  0  0  0  0  0  0
  135.1230  127.0550  122.2190 N   0  0  0  0  0  0  0  0  0  0  0  0
  134.0400  126.0460  122.0430 C   0  0  0  0  0  0  0  0  0  0  0  0
  133.9710  125.1220  123.2620 C   0  0  1  0  0  0  0  0  0  0  0  0
  132.8720  124.0700  122.9880 C   0  0  0  0  0  0  0  0  0  0  0  0
  131.5610  124.5820  123.1800 O   0  0  0  0  0  0  0  0  0  0  0  0
  131.2500  125.2030  124.3590 C   0  0  0  0  0  0  0  0  0  0  0  0
  131.2710  124.3500  125.4810 C   0  0  0  0  0  0  0  0  0  0  0  0
  130.9950  124.8290  126.7650 C   0  0  0  0  0  0  0  0  0  0  0  0
  130.6960  126.1670  126.8900 C   0  0  0  0  0  0  0  0  0  0  0  0
  130.6680  127.0020  125.8000 C   0  0  0  0  0  0  0  0  0  0  0  0
  130.9350  126.5530  124.5210 C   0  0  0  0  0  0  0  0  0  0  0  0
  130.3560  128.2830  126.1350 O   0  0  0  0  0  0  0  0  0  0  0  0
  130.1520  128.1480  127.5610 C   0  0  0  0  0  0  0  0  0  0  0  0
  130.4040  126.8140  128.0480 O   0  0  0  0  0  0  0  0  0  0  0  0
  136.0270  122.3610  124.7370 C   0  0  0  0  0  0  0  0  0  0  0  0
  136.1010  121.5590  125.8780 C   0  0  0  0  0  0  0  0  0  0  0  0
  134.6006  123.6377  128.1253 H   0  0  0  0  0  0  0  0  0  0  0  0
  134.4614  125.0793  126.0940 H   0  0  0  0  0  0  0  0  0  0  0  0
  135.5367  123.8176  122.6856 H   0  0  0  0  0  0  0  0  0  0  0  0
  136.2980  126.1920  124.5017 H   0  0  0  0  0  0  0  0  0  0  0  0
  137.4424  125.0557  123.6683 H   0  0  0  0  0  0  0  0  0  0  0  0
  137.2229  127.2538  122.5090 H   0  0  0  0  0  0  0  0  0  0  0  0
  136.7342  125.8611  121.4945 H   0  0  0  0  0  0  0  0  0  0  0  0
  134.9130  127.6620  123.0250 H   0  0  0  0  0  0  0  0  0  0  0  0
  135.1360  127.6840  121.4030 H   0  0  0  0  0  0  0  0  0  0  0  0
  133.0769  126.5642  121.9256 H   0  0  0  0  0  0  0  0  0  0  0  0
  134.2550  125.4428  121.1486 H   0  0  0  0  0  0  0  0  0  0  0  0
  133.7070  125.6776  124.1740 H   0  0  0  0  0  0  0  0  0  0  0  0
  132.9662  123.7259  121.9475 H   0  0  0  0  0  0  0  0  0  0  0  0
  133.0148  123.2471  123.7039 H   0  0  0  0  0  0  0  0  0  0  0  0
  131.5096  123.2850  125.3434 H   0  0  0  0  0  0  0  0  0  0  0  0
  131.0159  124.1634  127.6405 H   0  0  0  0  0  0  0  0  0  0  0  0
  130.9005  127.2363  123.6596 H   0  0  0  0  0  0  0  0  0  0  0  0
  130.8300  128.8428  128.0783 H   0  0  0  0  0  0  0  0  0  0  0  0
  129.0947  128.3748  127.7625 H   0  0  0  0  0  0  0  0  0  0  0  0
  136.4359  121.9932  123.7843 H   0  0  0  0  0  0  0  0  0  0  0  0
  136.5642  120.5627  125.8237 H   0  0  0  0  0  0  0  0  0  0  0  0
  1  2  1  0
  2  3  1  0
  3  4  2  0
  4  5  1  0
  5  6  1  0
  6  7  1  0
  7  8  1  0
  8  9  1  0
  9 10  1  0
 10 11  1  0
 11 12  1  0
 12 13  1  0
 13 14  1  0
 14 15  1  0
 15 16  2  0
 16 17  1  0
 17 18  2  0
 18 19  1  0
 18 20  1  0
 20 21  1  0
 21 22  1  0
  5 23  2  0
 23 24  1  0
 24  2  2  0
 11  6  1  0
 19 14  2  0
 22 17  1  0
  3 25  1  0
  4 26  1  0
  6 27  1  6
  7 28  1  0
  7 29  1  0
  8 30  1  0
  8 31  1  0
  9 32  1  0
  9 33  1  0
 10 34  1  0
 10 35  1  0
 11 36  1  1
 12 37  1  0
 12 38  1  0
 15 39  1  0
 16 40  1  0
 19 41  1  0
 21 42  1  0
 21 43  1  0
 23 44  1  0
 24 45  1  0
M  CHG  1   9   1
M  END
>  <meeko>  (7) 
{"is_sidechain": [false], "free_energy": -9.105, "intermolecular_energy": -11.103, "internal_energy": -1.248}

$$$$
seed-2403
     RDKit          3D

 45 48  0  0  0  0  0  0  0  0999 V2000
  134.5170  125.5850  118.6270 F   0  0  0  0  0  0  0  0  0  0  0  0
  134.6180  125.1020  119.8720 C   0  0  0  0  0  0  0  0  0  0  0  0
  134.1830  125.8710  120.9410 C   0  0  0  0  0  0  0  0  0  0  0  0
  134.2920  125.3710  122.2410 C   0  0  0  0  0  0  0  0  0  0  0  0
  134.8390  124.0960  122.4750 C   0  0  0  0  0  0  0  0  0  0  0  0
  134.9690  123.5250  123.8770 C   0  0  2  0  0  0  0  0  0  0  0  0
  136.2220  122.6240  123.9320 C   0  0  0  0  0  0  0  0  0  0  0  0
  136.4300  122.0250  125.3090 C   0  0  0  0  0  0  0  0  0  0  0  0
  135.1970  121.2860  125.7020 N   0  0  0  0  0  0  0  0  0  0  0  0
  133.9800  122.1440  125.7590 C   0  0  0  0  0  0  0  0  0  0  0  0
  133.7050  122.7720  124.3900 C   0  0  1  0  0  0  0  0  0  0  0  0
  132.4700  123.6910  124.5360 C   0  0  0  0  0  0  0  0  0  0  0  0
  132.5490  124.5400  125.6720 O   0  0  0  0  0  0  0  0  0  0  0  0
  131.4370  124.7270  126.4470 C   0  0  0  0  0  0  0  0  0  0  0  0
  131.2350  126.0640  126.8490 C   0  0  0  0  0  0  0  0  0  0  0  0
  130.1350  126.4290  127.6300 C   0  0  0  0  0  0  0  0  0  0  0  0
  129.2580  125.4330  127.9950 C   0  0  0  0  0  0  0  0  0  0  0  0
  129.4540  124.1280  127.6120 C   0  0  0  0  0  0  0  0  0  0  0  0
  130.5330  123.7400  126.8420 C   0  0  0  0  0  0  0  0  0  0  0  0
  128.4760  123.3000  128.0720 O   0  0  0  0  0  0  0  0  0  0  0  0
  127.6640  124.2320  128.8230 C   0  0  0  0  0  0  0  0  0  0  0  0
  128.1380  125.5920  128.7460 O   0  0  0  0  0  0  0  0  0  0  0  0
  135.2680  123.3360  121.3730 C   0  0  0  0  0  0  0  0  0  0  0  0
  135.1580  123.8400  120.0750 C   0  0  0  0  0  0  0  0  0  0  0  0
  133.7546  126.8690  120.7663 H   0  0  0  0  0  0  0  0  0  0  0  0
  133.9469  125.9799  123.0896 H   0  0  0  0  0  0  0  0  0  0  0  0
  135.0743  124.3769  124.5649 H   0  0  0  0  0  0  0  0  0  0  0  0
  136.1051  121.8080  123.2036 H   0  0  0  0  0  0  0  0  0  0  0  0
  137.0983  123.2454  123.6956 H   0  0  0  0  0  0  0  0  0  0  0  0
  137.2845  121.3327  125.2859 H   0  0  0  0  0  0  0  0  0  0  0  0
  136.6354  122.8236  126.0370 H   0  0  0  0  0  0  0  0  0  0  0  0
  135.0430  120.5000  125.0530 H   0  0  0  0  0  0  0  0  0  0  0  0
  135.3490  120.8510  126.6220 H   0  0  0  0  0  0  0  0  0  0  0  0
  133.1171  121.5298  126.0559 H   0  0  0  0  0  0  0  0  0  0  0  0
  134.1433  122.9465  126.4934 H   0  0  0  0  0  0  0  0  0  0  0  0
  133.4843  122.0054  123.6326 H   0  0  0  0  0  0  0  0  0  0  0  0
  132.3882  124.3161  123.6346 H   0  0  0  0  0  0  0  0  0  0  0  0
  131.5890  123.0451  124.6649 H   0  0  0  0  0  0  0  0  0  0  0  0
  131.9575  126.8344  126.5417 H   0  0  0  0  0  0  0  0  0  0  0  0
  129.9762  127.4721  127.9410 H   0  0  0  0  0  0  0  0  0  0  0  0
  130.6749  122.6890  126.5501 H   0  0  0  0  0  0  0  0  0  0  0  0
  126.6376  124.1971  128.4290 H   0  0  0  0  0  0  0  0  0  0  0  0
  127.7129  123.9291  129.8794 H   0  0  0  0  0  0  0  0  0  0  0  0
  135.6944  122.3349  121.5344 H   0  0  0  0  0  0  0  0  0  0  0  0
  135.4977  123.2396  119.2182 H   0  0  0  0  0  0  0  0  0  0  0  0
  1  2  1  0
  2  3  1  0
  3  4  2  0
  4  5  1  0
  5  6  1  0
  6  7  1  0
  7  8  1  0
  8  9  1  0
  9 10  1  0
 10 11  1  0
 11 12  1  0
 12 13  1  0
 13 14  1  0
 14 15  1  0
 15 16  2  0
 16 17  1  0
 17 18  2  0
 18 19  1  0
 18 20  1  0
 20 21  1  0
 21 22  1  0
  5 23  2  0
 23 24  1  0
 24  2  2  0
 11  6  1  0
 19 14  2  0
 22 17  1  0
  3 25  1  0
  4 26  1  0
  6 27  1  1
  7 28  1  0
  7 29  1  0
  8 30  1  0
  8 31  1  0
  9 32  1  0
  9 33  1  0
 10 34  1  0
 10 35  1  0
 11 36  1  6
 12 37  1  0
 12 38  1  0
 15 39  1  0
 16 40  1  0
 19 41  1  0
 21 42  1  0
 21 43  1  0
 23 44  1  0
 24 45  1  0
M  CHG  1   9   1
M  END
>  <meeko>  (8) 
{"is_sidechain": [false], "free_energy": -9.067, "intermolecular_energy": -11.691, "internal_energy": -0.613}

$$$$
seed-2403
     RDKit          3D

 45 48  0  0  0  0  0  0  0  0999 V2000
  134.5390  125.6060  118.8120 F   0  0  0  0  0  0  0  0  0  0  0  0
  134.6020  125.0840  120.0430 C   0  0  0  0  0  0  0  0  0  0  0  0
  134.0610  125.7840  121.1120 C   0  0  0  0  0  0  0  0  0  0  0  0
  134.1290  125.2430  122.3980 C   0  0  0  0  0  0  0  0  0  0  0  0
  134.7430  123.9970  122.6190 C   0  0  0  0  0  0  0  0  0  0  0  0
  134.8320  123.3830  124.0060 C   0  0  2  0  0  0  0  0  0  0  0  0
  136.1720  122.6270  124.1300 C   0  0  0  0  0  0  0  0  0  0  0  0
  136.3440  121.9940  125.4970 C   0  0  0  0  0  0  0  0  0  0  0  0
  135.1780  121.1050  125.7630 N   0  0  0  0  0  0  0  0  0  0  0  0
  133.8690  121.8180  125.7530 C   0  0  0  0  0  0  0  0  0  0  0  0
  133.6280  122.4710  124.3890 C   0  0  1  0  0  0  0  0  0  0  0  0
  132.2880  123.2380  124.4690 C   0  0  0  0  0  0  0  0  0  0  0  0
  131.6530  123.1050  125.7330 O   0  0  0  0  0  0  0  0  0  0  0  0
  131.1770  124.2210  126.3630 C   0  0  0  0  0  0  0  0  0  0  0  0
  130.0050  124.0000  127.1170 C   0  0  0  0  0  0  0  0  0  0  0  0
  129.3990  125.0330  127.8380 C   0  0  0  0  0  0  0  0  0  0  0  0
  129.9880  126.2760  127.7810 C   0  0  0  0  0  0  0  0  0  0  0  0
  131.1250  126.4980  127.0430 C   0  0  0  0  0  0  0  0  0  0  0  0
  131.7430  125.4960  126.3210 C   0  0  0  0  0  0  0  0  0  0  0  0
  131.5490  127.7900  127.1200 O   0  0  0  0  0  0  0  0  0  0  0  0
  130.5210  128.3620  127.9610 C   0  0  0  0  0  0  0  0  0  0  0  0
  129.5500  127.3960  128.4120 O   0  0  0  0  0  0  0  0  0  0  0  0
  135.2800  123.3060  121.5180 C   0  0  0  0  0  0  0  0  0  0  0  0
  135.2090  123.8510  120.2340 C   0  0  0  0  0  0  0  0  0  0  0  0
  133.5810  126.7600  120.9475 H   0  0  0  0  0  0  0  0  0  0  0  0
  133.6985  125.7964  123.2456 H   0  0  0  0  0  0  0  0  0  0  0  0
  134.7865  124.2104  124.7295 H   0  0  0  0  0  0  0  0  0  0  0  0
  136.2054  121.8363  123.3660 H   0  0  0  0  0  0  0  0  0  0  0  0
  136.9857  123.3533  123.9877 H   0  0  0  0  0  0  0  0  0  0  0  0
  137.2718  121.4034  125.5171 H   0  0  0  0  0  0  0  0  0  0  0  0
  136.4014  122.7769  126.2676 H   0  0  0  0  0  0  0  0  0  0  0  0
  135.1650  120.3360  125.0770 H   0  0  0  0  0  0  0  0  0  0  0  0
  135.3090  120.6500  126.6770 H   0  0  0  0  0  0  0  0  0  0  0  0
  133.0626  121.0985  125.9581 H   0  0  0  0  0  0  0  0  0  0  0  0
  133.8826  122.6004  126.5261 H   0  0  0  0  0  0  0  0  0  0  0  0
  133.5553  121.7192  123.5893 H   0  0  0  0  0  0  0  0  0  0  0  0
  132.4818  124.3048  124.2834 H   0  0  0  0  0  0  0  0  0  0  0  0
  131.6145  122.8085  123.7128 H   0  0  0  0  0  0  0  0  0  0  0  0
  129.5592  122.9946  127.1379 H   0  0  0  0  0  0  0  0  0  0  0  0
  128.4870  124.8594  128.4280 H   0  0  0  0  0  0  0  0  0  0  0  0
  132.6507  125.6961  125.7327 H   0  0  0  0  0  0  0  0  0  0  0  0
  131.0013  128.8119  128.8424 H   0  0  0  0  0  0  0  0  0  0  0  0
  129.9828  129.1071  127.3566 H   0  0  0  0  0  0  0  0  0  0  0  0
  135.7600  122.3279  121.6694 H   0  0  0  0  0  0  0  0  0  0  0  0
  135.6324  123.3052  119.3780 H   0  0  0  0  0  0  0  0  0  0  0  0
  1  2  1  0
  2  3  1  0
  3  4  2  0
  4  5  1  0
  5  6  1  0
  6  7  1  0
  7  8  1  0
  8  9  1  0
  9 10  1  0
 10 11  1  0
 11 12  1  0
 12 13  1  0
 13 14  1  0
 14 15  1  0
 15 16  2  0
 16 17  1  0
 17 18  2  0
 18 19  1  0
 18 20  1  0
 20 21  1  0
 21 22  1  0
  5 23  2  0
 23 24  1  0
 24  2  2  0
 11  6  1  0
 19 14  2  0
 22 17  1  0
  3 25  1  0
  4 26  1  0
  6 27  1  1
  7 28  1  0
  7 29  1  0
  8 30  1  0
  8 31  1  0
  9 32  1  0
  9 33  1  0
 10 34  1  0
 10 35  1  0
 11 36  1  6
 12 37  1  0
 12 38  1  0
 15 39  1  0
 16 40  1  0
 19 41  1  0
 21 42  1  0
 21 43  1  0
 23 44  1  0
 24 45  1  0
M  CHG  1   9   1
M  END
>  <meeko>  (9) 
{"is_sidechain": [false], "free_energy": -8.982, "intermolecular_energy": -11.469, "internal_energy": -0.73}

$$$$
seed-2403
     RDKit          3D

 45 48  0  0  0  0  0  0  0  0999 V2000
  129.3740  129.1730  125.4580 F   0  0  0  0  0  0  0  0  0  0  0  0
  130.1060  128.0520  125.4200 C   0  0  0  0  0  0  0  0  0  0  0  0
  130.3430  127.4320  124.2020 C   0  0  0  0  0  0  0  0  0  0  0  0
  131.1020  126.2600  124.1600 C   0  0  0  0  0  0  0  0  0  0  0  0
  131.6260  125.7030  125.3410 C   0  0  0  0  0  0  0  0  0  0  0  0
  132.4560  124.4300  125.3270 C   0  0  2  0  0  0  0  0  0  0  0  0
  131.7690  123.3790  126.2260 C   0  0  0  0  0  0  0  0  0  0  0  0
  132.5320  122.0690  126.2540 C   0  0  0  0  0  0  0  0  0  0  0  0
  133.9330  122.3410  126.6850 N   0  0  0  0  0  0  0  0  0  0  0  0
  134.6660  123.2740  125.7840 C   0  0  0  0  0  0  0  0  0  0  0  0
  133.9500  124.6260  125.7230 C   0  0  1  0  0  0  0  0  0  0  0  0
  134.7270  125.5220  124.7300 C   0  0  0  0  0  0  0  0  0  0  0  0
  135.5520  124.7750  123.8470 O   0  0  0  0  0  0  0  0  0  0  0  0
  135.2700  124.7700  122.5090 C   0  0  0  0  0  0  0  0  0  0  0  0
  134.5320  125.8900  122.0730 C   0  0  0  0  0  0  0  0  0  0  0  0
  134.1760  126.0490  120.7310 C   0  0  0  0  0  0  0  0  0  0  0  0
  134.5700  125.0670  119.8510 C   0  0  0  0  0  0  0  0  0  0  0  0
  135.2830  123.9700  120.2700 C   0  0  0  0  0  0  0  0  0  0  0  0
  135.6460  123.7890  121.5910 C   0  0  0  0  0  0  0  0  0  0  0  0
  135.5770  123.1200  119.2490 O   0  0  0  0  0  0  0  0  0  0  0  0
  134.9290  123.7920  118.1430 C   0  0  0  0  0  0  0  0  0  0  0  0
  134.3220  125.0460  118.5160 O   0  0  0  0  0  0  0  0  0  0  0  0
  131.3740  126.3540  126.5610 C   0  0  0  0  0  0  0  0  0  0  0  0
  130.6150  127.5260  126.5980 C   0  0  0  0  0  0  0  0  0  0  0  0
  129.9356  127.8607  123.2745 H   0  0  0  0  0  0  0  0  0  0  0  0
  131.2918  125.7680  123.1946 H   0  0  0  0  0  0  0  0  0  0  0  0
  132.4955  124.0812  124.2845 H   0  0  0  0  0  0  0  0  0  0  0  0
  131.7056  123.7749  127.2503 H   0  0  0  0  0  0  0  0  0  0  0  0
  130.7689  123.1807  125.8132 H   0  0  0  0  0  0  0  0  0  0  0  0
  132.0541  121.3774  126.9635 H   0  0  0  0  0  0  0  0  0  0  0  0
  132.5297  121.6125  125.2532 H   0  0  0  0  0  0  0  0  0  0  0  0
  133.9330  122.7080  127.6490 H   0  0  0  0  0  0  0  0  0  0  0  0
  134.4430  121.4480  126.7360 H   0  0  0  0  0  0  0  0  0  0  0  0
  135.6868  123.4209  126.1666 H   0  0  0  0  0  0  0  0  0  0  0  0
  134.7010  122.8417  124.7731 H   0  0  0  0  0  0  0  0  0  0  0  0
  133.9373  125.1192  126.7062 H   0  0  0  0  0  0  0  0  0  0  0  0
  134.0029  126.0964  124.1336 H   0  0  0  0  0  0  0  0  0  0  0  0
  135.3821  126.1804  125.3194 H   0  0  0  0  0  0  0  0  0  0  0  0
  134.2304  126.6542  122.8044 H   0  0  0  0  0  0  0  0  0  0  0  0
  133.6034  126.9246  120.3914 H   0  0  0  0  0  0  0  0  0  0  0  0
  136.2125  122.9011  121.9082 H   0  0  0  0  0  0  0  0  0  0  0  0
  135.6803  123.9857  117.3632 H   0  0  0  0  0  0  0  0  0  0  0  0
  134.1238  123.1326  117.7869 H   0  0  0  0  0  0  0  0  0  0  0  0
  131.7782  125.9367  127.4951 H   0  0  0  0  0  0  0  0  0  0  0  0
  130.4219  128.0294  127.5568 H   0  0  0  0  0  0  0  0  0  0  0  0
  1  2  1  0
  2  3  1  0
  3  4  2  0
  4  5  1  0
  5  6  1  0
  6  7  1  0
  7  8  1  0
  8  9  1  0
  9 10  1  0
 10 11  1  0
 11 12  1  0
 12 13  1  0
 13 14  1  0
 14 15  1  0
 15 16  2  0
 16 17  1  0
 17 18  2  0
 18 19  1  0
 18 20  1  0
 20 21  1  0
 21 22  1  0
  5 23  2  0
 23 24  1  0
 24  2  2  0
 11  6  1  0
 19 14  2  0
 22 17  1  0
  3 25  1  0
  4 26  1  0
  6 27  1  6
  7 28  1  0
  7 29  1  0
  8 30  1  0
  8 31  1  0
  9 32  1  0
  9 33  1  0
 10 34  1  0
 10 35  1  0
 11 36  1  1
 12 37  1  0
 12 38  1  0
 15 39  1  0
 16 40  1  0
 19 41  1  0
 21 42  1  0
 21 43  1  0
 23 44  1  0
 24 45  1  0
M  CHG  1   9   1
M  END
>  <meeko>  (10) 
{"is_sidechain": [false], "free_energy": -8.982, "intermolecular_energy": -11.094, "internal_energy": -1.105}

$$$$
seed-2403
     RDKit          3D

 45 48  0  0  0  0  0  0  0  0999 V2000
  138.9630  126.6220  125.7310 F   0  0  0  0  0  0  0  0  0  0  0  0
  137.6920  126.3260  125.4290 C   0  0  0  0  0  0  0  0  0  0  0  0
  136.7930  127.3500  125.1730 C   0  0  0  0  0  0  0  0  0  0  0  0
  135.4660  127.0440  124.8630 C   0  0  0  0  0  0  0  0  0  0  0  0
  135.0340  125.7070  124.8080 C   0  0  0  0  0  0  0  0  0  0  0  0
  133.5980  125.3420  124.4720 C   0  0  2  0  0  0  0  0  0  0  0  0
  133.1610  124.1640  125.3700 C   0  0  0  0  0  0  0  0  0  0  0  0
  131.7270  123.7480  125.1040 C   0  0  0  0  0  0  0  0  0  0  0  0
  131.5830  123.4270  123.6560 N   0  0  0  0  0  0  0  0  0  0  0  0
  131.8980  124.5720  122.7560 C   0  0  0  0  0  0  0  0  0  0  0  0
  133.3430  125.0330  122.9670 C   0  0  1  0  0  0  0  0  0  0  0  0
  133.5820  126.2540  122.0480 C   0  0  0  0  0  0  0  0  0  0  0  0
  134.7720  126.1390  121.2810 O   0  0  0  0  0  0  0  0  0  0  0  0
  134.8830  125.1310  120.3640 C   0  0  0  0  0  0  0  0  0  0  0  0
  135.5770  123.9980  120.8360 C   0  0  0  0  0  0  0  0  0  0  0  0
  135.7630  122.8710  120.0290 C   0  0  0  0  0  0  0  0  0  0  0  0
  135.2460  122.9120  118.7550 C   0  0  0  0  0  0  0  0  0  0  0  0
  134.5750  124.0160  118.2870 C   0  0  0  0  0  0  0  0  0  0  0  0
  134.3790  125.1420  119.0620 C   0  0  0  0  0  0  0  0  0  0  0  0
  134.1420  123.8560  117.0070 O   0  0  0  0  0  0  0  0  0  0  0  0
  134.6540  122.5360  116.7100 C   0  0  0  0  0  0  0  0  0  0  0  0
  135.3230  121.9200  117.8300 O   0  0  0  0  0  0  0  0  0  0  0  0
  135.9660  124.6870  125.0670 C   0  0  0  0  0  0  0  0  0  0  0  0
  137.2920  124.9980  125.3780 C   0  0  0  0  0  0  0  0  0  0  0  0
  137.1233  128.3984  125.2138 H   0  0  0  0  0  0  0  0  0  0  0  0
  134.7524  127.8562  124.6601 H   0  0  0  0  0  0  0  0  0  0  0  0
  132.9831  126.2314  124.6740 H   0  0  0  0  0  0  0  0  0  0  0  0
  133.8214  123.3059  125.1764 H   0  0  0  0  0  0  0  0  0  0  0  0
  133.2308  124.4915  126.4178 H   0  0  0  0  0  0  0  0  0  0  0  0
  131.4813  122.8607  125.7060 H   0  0  0  0  0  0  0  0  0  0  0  0
  131.0432  124.5654  125.3763 H   0  0  0  0  0  0  0  0  0  0  0  0
  132.1780  122.6180  123.4200 H   0  0  0  0  0  0  0  0  0  0  0  0
  130.6180  123.1120  123.4800 H   0  0  0  0  0  0  0  0  0  0  0  0
  131.7665  124.2580  121.7100 H   0  0  0  0  0  0  0  0  0  0  0  0
  131.2192  125.4060  122.9877 H   0  0  0  0  0  0  0  0  0  0  0  0
  134.0611  124.2444  122.6978 H   0  0  0  0  0  0  0  0  0  0  0  0
  132.7284  126.3495  121.3608 H   0  0  0  0  0  0  0  0  0  0  0  0
  133.6868  127.1392  122.6926 H   0  0  0  0  0  0  0  0  0  0  0  0
  135.9802  124.0006  121.8594 H   0  0  0  0  0  0  0  0  0  0  0  0
  136.3018  121.9862  120.3987 H   0  0  0  0  0  0  0  0  0  0  0  0
  133.8438  126.0181  118.6669 H   0  0  0  0  0  0  0  0  0  0  0  0
  133.8127  121.8943  116.4094 H   0  0  0  0  0  0  0  0  0  0  0  0
  135.3970  122.6471  115.9065 H   0  0  0  0  0  0  0  0  0  0  0  0
  135.6484  123.6347  125.0244 H   0  0  0  0  0  0  0  0  0  0  0  0
  138.0153  124.1945  125.5814 H   0  0  0  0  0  0  0  0  0  0  0  0
  1  2  1  0
  2  3  1  0
  3  4  2  0
  4  5  1  0
  5  6  1  0
  6  7  1  0
  7  8  1  0
  8  9  1  0
  9 10  1  0
 10 11  1  0
 11 12  1  0
 12 13  1  0
 13 14  1  0
 14 15  1  0
 15 16  2  0
 16 17  1  0
 17 18  2  0
 18 19  1  0
 18 20  1  0
 20 21  1  0
 21 22  1  0
  5 23  2  0
 23 24  1  0
 24  2  2  0
 11  6  1  0
 19 14  2  0
 22 17  1  0
  3 25  1  0
  4 26  1  0
  6 27  1  1
  7 28  1  0
  7 29  1  0
  8 30  1  0
  8 31  1  0
  9 32  1  0
  9 33  1  0
 10 34  1  0
 10 35  1  0
 11 36  1  6
 12 37  1  0
 12 38  1  0
 15 39  1  0
 16 40  1  0
 19 41  1  0
 21 42  1  0
 21 43  1  0
 23 44  1  0
 24 45  1  0
M  CHG  1   9   1
M  END
>  <meeko>  (11) 
{"is_sidechain": [false], "free_energy": -8.918, "intermolecular_energy": -11.338, "internal_energy": -0.782}

$$$$
seed-2403
     RDKit          3D

 45 48  0  0  0  0  0  0  0  0999 V2000
  134.9400  123.7330  117.7140 F   0  0  0  0  0  0  0  0  0  0  0  0
  135.0020  124.0710  119.0090 C   0  0  0  0  0  0  0  0  0  0  0  0
  135.7560  123.3000  119.8810 C   0  0  0  0  0  0  0  0  0  0  0  0
  135.8190  123.6460  121.2320 C   0  0  0  0  0  0  0  0  0  0  0  0
  135.1240  124.7700  121.7170 C   0  0  0  0  0  0  0  0  0  0  0  0
  135.1750  125.1740  123.1800 C   0  0  2  0  0  0  0  0  0  0  0  0
  136.4820  125.9540  123.4360 C   0  0  0  0  0  0  0  0  0  0  0  0
  136.6010  126.4070  124.8780 C   0  0  0  0  0  0  0  0  0  0  0  0
  136.4820  125.2150  125.7650 N   0  0  0  0  0  0  0  0  0  0  0  0
  135.1880  124.4910  125.6220 C   0  0  0  0  0  0  0  0  0  0  0  0
  135.0120  123.9940  124.1840 C   0  0  1  0  0  0  0  0  0  0  0  0
  133.6300  123.3070  124.0930 C   0  0  0  0  0  0  0  0  0  0  0  0
  132.5750  124.2250  123.8440 O   0  0  0  0  0  0  0  0  0  0  0  0
  131.8670  124.7340  124.8980 C   0  0  0  0  0  0  0  0  0  0  0  0
  131.2450  123.7550  125.7000 C   0  0  0  0  0  0  0  0  0  0  0  0
  130.4980  124.1070  126.8280 C   0  0  0  0  0  0  0  0  0  0  0  0
  130.3890  125.4460  127.1230 C   0  0  0  0  0  0  0  0  0  0  0  0
  130.9880  126.4050  126.3420 C   0  0  0  0  0  0  0  0  0  0  0  0
  131.7300  126.0850  125.2220 C   0  0  0  0  0  0  0  0  0  0  0  0
  130.7630  127.6650  126.8040 O   0  0  0  0  0  0  0  0  0  0  0  0
  129.9200  127.3890  127.9460 C   0  0  0  0  0  0  0  0  0  0  0  0
  129.7120  125.9800  128.1720 O   0  0  0  0  0  0  0  0  0  0  0  0
  134.3710  125.5380  120.8100 C   0  0  0  0  0  0  0  0  0  0  0  0
  134.3110  125.1860  119.4600 C   0  0  0  0  0  0  0  0  0  0  0  0
  136.3018  122.4200  119.5099 H   0  0  0  0  0  0  0  0  0  0  0  0
  136.4172  123.0348  121.9238 H   0  0  0  0  0  0  0  0  0  0  0  0
  134.3002  125.8136  123.3689 H   0  0  0  0  0  0  0  0  0  0  0  0
  137.3362  125.3036  123.1966 H   0  0  0  0  0  0  0  0  0  0  0  0
  136.4727  126.8503  122.7984 H   0  0  0  0  0  0  0  0  0  0  0  0
  137.5771  126.8893  125.0351 H   0  0  0  0  0  0  0  0  0  0  0  0
  135.8041  127.1285  125.1111 H   0  0  0  0  0  0  0  0  0  0  0  0
  137.2680  124.5720  125.5880 H   0  0  0  0  0  0  0  0  0  0  0  0
  136.5950  125.5170  126.7440 H   0  0  0  0  0  0  0  0  0  0  0  0
  135.1762  123.6305  126.3072 H   0  0  0  0  0  0  0  0  0  0  0  0
  134.3648  125.1787  125.8658 H   0  0  0  0  0  0  0  0  0  0  0  0
  135.7867  123.2615  123.9134 H   0  0  0  0  0  0  0  0  0  0  0  0
  133.6562  122.5714  123.2756 H   0  0  0  0  0  0  0  0  0  0  0  0
  133.4322  122.8302  125.0644 H   0  0  0  0  0  0  0  0  0  0  0  0
  131.3497  122.6931  125.4327 H   0  0  0  0  0  0  0  0  0  0  0  0
  130.0161  123.3427  127.4554 H   0  0  0  0  0  0  0  0  0  0  0  0
  132.1970  126.8678  124.6063 H   0  0  0  0  0  0  0  0  0  0  0  0
  130.3917  127.8206  128.8411 H   0  0  0  0  0  0  0  0  0  0  0  0
  128.9359  127.8357  127.7411 H   0  0  0  0  0  0  0  0  0  0  0  0
  133.8248  126.4234  121.1674 H   0  0  0  0  0  0  0  0  0  0  0  0
  133.7184  125.7902  118.7573 H   0  0  0  0  0  0  0  0  0  0  0  0
  1  2  1  0
  2  3  1  0
  3  4  2  0
  4  5  1  0
  5  6  1  0
  6  7  1  0
  7  8  1  0
  8  9  1  0
  9 10  1  0
 10 11  1  0
 11 12  1  0
 12 13  1  0
 13 14  1  0
 14 15  1  0
 15 16  2  0
 16 17  1  0
 17 18  2  0
 18 19  1  0
 18 20  1  0
 20 21  1  0
 21 22  1  0
  5 23  2  0
 23 24  1  0
 24  2  2  0
 11  6  1  0
 19 14  2  0
 22 17  1  0
  3 25  1  0
  4 26  1  0
  6 27  1  6
  7 28  1  0
  7 29  1  0
  8 30  1  0
  8 31  1  0
  9 32  1  0
  9 33  1  0
 10 34  1  0
 10 35  1  0
 11 36  1  6
 12 37  1  0
 12 38  1  0
 15 39  1  0
 16 40  1  0
 19 41  1  0
 21 42  1  0
 21 43  1  0
 23 44  1  0
 24 45  1  0
M  CHG  1   9   1
M  END
>  <meeko>  (12) 
{"is_sidechain": [false], "free_energy": -8.906, "intermolecular_energy": -11.241, "internal_energy": -0.865}

$$$$
seed-2403
     RDKit          3D

 45 48  0  0  0  0  0  0  0  0999 V2000
  134.5420  125.6070  118.8460 F   0  0  0  0  0  0  0  0  0  0  0  0
  134.6500  125.0790  120.0720 C   0  0  0  0  0  0  0  0  0  0  0  0
  134.2370  125.8160  121.1720 C   0  0  0  0  0  0  0  0  0  0  0  0
  134.3530  125.2710  122.4520 C   0  0  0  0  0  0  0  0  0  0  0  0
  134.8850  123.9820  122.6360 C   0  0  0  0  0  0  0  0  0  0  0  0
  135.0220  123.3600  124.0160 C   0  0  2  0  0  0  0  0  0  0  0  0
  136.3030  122.4980  124.0470 C   0  0  0  0  0  0  0  0  0  0  0  0
  136.5200  121.8520  125.4020 C   0  0  0  0  0  0  0  0  0  0  0  0
  135.3080  121.0600  125.7540 N   0  0  0  0  0  0  0  0  0  0  0  0
  134.0630  121.8760  125.8340 C   0  0  0  0  0  0  0  0  0  0  0  0
  133.7800  122.5480  124.4880 C   0  0  1  0  0  0  0  0  0  0  0  0
  132.5150  123.4210  124.6590 C   0  0  0  0  0  0  0  0  0  0  0  0
  132.7200  124.5210  125.5340 O   0  0  0  0  0  0  0  0  0  0  0  0
  131.8400  125.5670  125.5130 C   0  0  0  0  0  0  0  0  0  0  0  0
  131.4470  125.9620  124.2180 C   0  0  0  0  0  0  0  0  0  0  0  0
  130.5380  127.0050  124.0200 C   0  0  0  0  0  0  0  0  0  0  0  0
  130.0440  127.6360  125.1390 C   0  0  0  0  0  0  0  0  0  0  0  0
  130.4290  127.2600  126.4040 C   0  0  0  0  0  0  0  0  0  0  0  0
  131.3260  126.2340  126.6270 C   0  0  0  0  0  0  0  0  0  0  0  0
  129.8260  128.0040  127.3720 O   0  0  0  0  0  0  0  0  0  0  0  0
  129.0480  128.9180  126.5650 C   0  0  0  0  0  0  0  0  0  0  0  0
  129.1560  128.6630  125.1500 O   0  0  0  0  0  0  0  0  0  0  0  0
  135.2920  123.2540  121.5040 C   0  0  0  0  0  0  0  0  0  0  0  0
  135.1740  123.8040  120.2250 C   0  0  0  0  0  0  0  0  0  0  0  0
  133.8201  126.8249  121.0365 H   0  0  0  0  0  0  0  0  0  0  0  0
  134.0253  125.8550  123.3247 H   0  0  0  0  0  0  0  0  0  0  0  0
  135.0939  124.1872  124.7375 H   0  0  0  0  0  0  0  0  0  0  0  0
  136.2180  121.7079  123.2863 H   0  0  0  0  0  0  0  0  0  0  0  0
  137.1605  123.1560  123.8429 H   0  0  0  0  0  0  0  0  0  0  0  0
  137.3962  121.1883  125.3595 H   0  0  0  0  0  0  0  0  0  0  0  0
  136.6949  122.6271  126.1627 H   0  0  0  0  0  0  0  0  0  0  0  0
  135.1840  120.2950  125.0740 H   0  0  0  0  0  0  0  0  0  0  0  0
  135.4660  120.5940  126.6590 H   0  0  0  0  0  0  0  0  0  0  0  0
  133.2179  121.2234  126.0984 H   0  0  0  0  0  0  0  0  0  0  0  0
  134.1937  122.6533  126.6012 H   0  0  0  0  0  0  0  0  0  0  0  0
  133.5911  121.8049  123.6993 H   0  0  0  0  0  0  0  0  0  0  0  0
  132.2183  123.8070  123.6726 H   0  0  0  0  0  0  0  0  0  0  0  0
  131.7323  122.7872  125.1012 H   0  0  0  0  0  0  0  0  0  0  0  0
  131.8645  125.4384  123.3453 H   0  0  0  0  0  0  0  0  0  0  0  0
  130.2294  127.3097  123.0091 H   0  0  0  0  0  0  0  0  0  0  0  0
  131.6254  125.9518  127.6472 H   0  0  0  0  0  0  0  0  0  0  0  0
  127.9911  128.8281  126.8563 H   0  0  0  0  0  0  0  0  0  0  0  0
  129.4430  129.9287  126.7450 H   0  0  0  0  0  0  0  0  0  0  0  0
  135.7069  122.2426  121.6264 H   0  0  0  0  0  0  0  0  0  0  0  0
  135.4950  123.2288  119.3440 H   0  0  0  0  0  0  0  0  0  0  0  0
  1  2  1  0
  2  3  1  0
  3  4  2  0
  4  5  1  0
  5  6  1  0
  6  7  1  0
  7  8  1  0
  8  9  1  0
  9 10  1  0
 10 11  1  0
 11 12  1  0
 12 13  1  0
 13 14  1  0
 14 15  1  0
 15 16  2  0
 16 17  1  0
 17 18  2  0
 18 19  1  0
 18 20  1  0
 20 21  1  0
 21 22  1  0
  5 23  2  0
 23 24  1  0
 24  2  2  0
 11  6  1  0
 19 14  2  0
 22 17  1  0
  3 25  1  0
  4 26  1  0
  6 27  1  1
  7 28  1  0
  7 29  1  0
  8 30  1  0
  8 31  1  0
  9 32  1  0
  9 33  1  0
 10 34  1  0
 10 35  1  0
 11 36  1  6
 12 37  1  0
 12 38  1  0
 15 39  1  0
 16 40  1  0
 19 41  1  0
 21 42  1  0
 21 43  1  0
 23 44  1  0
 24 45  1  0
M  CHG  1   9   1
M  END
>  <meeko>  (13) 
{"is_sidechain": [false], "free_energy": -8.846, "intermolecular_energy": -11.134, "internal_energy": -0.897}

$$$$
seed-2403
     RDKit          3D

 45 48  0  0  0  0  0  0  0  0999 V2000
  135.3040  122.8690  117.8210 F   0  0  0  0  0  0  0  0  0  0  0  0
  135.2350  123.6380  118.9150 C   0  0  0  0  0  0  0  0  0  0  0  0
  134.4200  124.7600  118.9120 C   0  0  0  0  0  0  0  0  0  0  0  0
  134.3500  125.5660  120.0510 C   0  0  0  0  0  0  0  0  0  0  0  0
  135.0980  125.2510  121.1990 C   0  0  0  0  0  0  0  0  0  0  0  0
  135.0410  126.1070  122.4530 C   0  0  2  0  0  0  0  0  0  0  0  0
  136.4460  126.6910  122.7200 C   0  0  0  0  0  0  0  0  0  0  0  0
  136.4690  127.5730  123.9530 C   0  0  0  0  0  0  0  0  0  0  0  0
  135.9640  126.7870  125.1140 N   0  0  0  0  0  0  0  0  0  0  0  0
  134.5700  126.2910  124.9370 C   0  0  0  0  0  0  0  0  0  0  0  0
  134.4810  125.3790  123.7100 C   0  0  1  0  0  0  0  0  0  0  0  0
  133.0040  124.9490  123.5540 C   0  0  0  0  0  0  0  0  0  0  0  0
  132.7240  123.7040  124.1780 O   0  0  0  0  0  0  0  0  0  0  0  0
  133.7220  123.0530  124.8510 C   0  0  0  0  0  0  0  0  0  0  0  0
  134.6310  122.3730  124.0140 C   0  0  0  0  0  0  0  0  0  0  0  0
  135.7190  121.6730  124.5410 C   0  0  0  0  0  0  0  0  0  0  0  0
  135.8670  121.6680  125.9100 C   0  0  0  0  0  0  0  0  0  0  0  0
  134.9810  122.3230  126.7300 C   0  0  0  0  0  0  0  0  0  0  0  0
  133.8970  123.0210  126.2350 C   0  0  0  0  0  0  0  0  0  0  0  0
  135.3050  122.2000  128.0470 O   0  0  0  0  0  0  0  0  0  0  0  0
  136.4770  121.3570  127.9600 C   0  0  0  0  0  0  0  0  0  0  0  0
  136.8570  121.0490  126.6030 O   0  0  0  0  0  0  0  0  0  0  0  0
  135.9130  124.1050  121.1770 C   0  0  0  0  0  0  0  0  0  0  0  0
  135.9800  123.3020  120.0370 C   0  0  0  0  0  0  0  0  0  0  0  0
  133.8319  125.0140  118.0178 H   0  0  0  0  0  0  0  0  0  0  0  0
  133.7033  126.4558  120.0496 H   0  0  0  0  0  0  0  0  0  0  0  0
  134.3166  126.9124  122.2619 H   0  0  0  0  0  0  0  0  0  0  0  0
  137.1541  125.8615  122.8633 H   0  0  0  0  0  0  0  0  0  0  0  0
  136.7274  127.3090  121.8546 H   0  0  0  0  0  0  0  0  0  0  0  0
  137.4988  127.9051  124.1510 H   0  0  0  0  0  0  0  0  0  0  0  0
  135.8324  128.4558  123.7935 H   0  0  0  0  0  0  0  0  0  0  0  0
  136.5990  125.9970  125.3000 H   0  0  0  0  0  0  0  0  0  0  0  0
  136.0100  127.3750  125.9580 H   0  0  0  0  0  0  0  0  0  0  0  0
  134.2699  125.7257  125.8316 H   0  0  0  0  0  0  0  0  0  0  0  0
  133.9002  127.1515  124.7920 H   0  0  0  0  0  0  0  0  0  0  0  0
  135.0985  124.4770  123.8330 H   0  0  0  0  0  0  0  0  0  0  0  0
  132.3637  125.7206  124.0063 H   0  0  0  0  0  0  0  0  0  0  0  0
  132.8050  124.8324  122.4785 H   0  0  0  0  0  0  0  0  0  0  0  0
  134.4802  122.3943  122.9246 H   0  0  0  0  0  0  0  0  0  0  0  0
  136.4300  121.1462  123.8876 H   0  0  0  0  0  0  0  0  0  0  0  0
  133.1953  123.5343  126.9089 H   0  0  0  0  0  0  0  0  0  0  0  0
  137.3160  121.8735  128.4492 H   0  0  0  0  0  0  0  0  0  0  0  0
  136.2322  120.4054  128.4545 H   0  0  0  0  0  0  0  0  0  0  0  0
  136.5031  123.8389  122.0664 H   0  0  0  0  0  0  0  0  0  0  0  0
  136.6200  122.4074  120.0279 H   0  0  0  0  0  0  0  0  0  0  0  0
  1  2  1  0
  2  3  1  0
  3  4  2  0
  4  5  1  0
  5  6  1  0
  6  7  1  0
  7  8  1  0
  8  9  1  0
  9 10  1  0
 10 11  1  0
 11 12  1  0
 12 13  1  0
 13 14  1  0
 14 15  1  0
 15 16  2  0
 16 17  1  0
 17 18  2  0
 18 19  1  0
 18 20  1  0
 20 21  1  0
 21 22  1  0
  5 23  2  0
 23 24  1  0
 24  2  2  0
 11  6  1  0
 19 14  2  0
 22 17  1  0
  3 25  1  0
  4 26  1  0
  6 27  1  6
  7 28  1  0
  7 29  1  0
  8 30  1  0
  8 31  1  0
  9 32  1  0
  9 33  1  0
 10 34  1  0
 10 35  1  0
 11 36  1  1
 12 37  1  0
 12 38  1  0
 15 39  1  0
 16 40  1  0
 19 41  1  0
 21 42  1  0
 21 43  1  0
 23 44  1  0
 24 45  1  0
M  CHG  1   9   1
M  END
>  <meeko>  (14) 
{"is_sidechain": [false], "free_energy": -8.654, "intermolecular_energy": -11.245, "internal_energy": -0.55}

$$$$
seed-2403
     RDKit          3D

 45 48  0  0  0  0  0  0  0  0999 V2000
  131.5370  124.9750  126.2930 F   0  0  0  0  0  0  0  0  0  0  0  0
  132.2540  125.0050  125.1630 C   0  0  0  0  0  0  0  0  0  0  0  0
  131.9690  124.1020  124.1490 C   0  0  0  0  0  0  0  0  0  0  0  0
  132.7180  124.1270  122.9700 C   0  0  0  0  0  0  0  0  0  0  0  0
  133.7600  125.0580  122.8040 C   0  0  0  0  0  0  0  0  0  0  0  0
  134.5920  125.1110  121.5330 C   0  0  2  0  0  0  0  0  0  0  0  0
  133.6410  125.1100  120.3160 C   0  0  0  0  0  0  0  0  0  0  0  0
  134.3980  125.1760  119.0040 C   0  0  0  0  0  0  0  0  0  0  0  0
  135.3680  124.0460  118.9530 N   0  0  0  0  0  0  0  0  0  0  0  0
  136.3690  124.0680  120.0570 C   0  0  0  0  0  0  0  0  0  0  0  0
  135.6670  123.9900  121.4150 C   0  0  1  0  0  0  0  0  0  0  0  0
  136.7550  124.0770  122.5100 C   0  0  0  0  0  0  0  0  0  0  0  0
  136.8930  122.8680  123.2440 O   0  0  0  0  0  0  0  0  0  0  0  0
  136.0150  122.5950  124.2560 C   0  0  0  0  0  0  0  0  0  0  0  0
  136.1620  123.4270  125.3850 C   0  0  0  0  0  0  0  0  0  0  0  0
  135.3310  123.2910  126.5010 C   0  0  0  0  0  0  0  0  0  0  0  0
  134.3650  122.3120  126.4560 C   0  0  0  0  0  0  0  0  0  0  0  0
  134.2210  121.4950  125.3610 C   0  0  0  0  0  0  0  0  0  0  0  0
  135.0300  121.6060  124.2470 C   0  0  0  0  0  0  0  0  0  0  0  0
  133.2090  120.5970  125.5140 O   0  0  0  0  0  0  0  0  0  0  0  0
  132.7600  120.9190  126.8500 C   0  0  0  0  0  0  0  0  0  0  0  0
  133.4670  122.0320  127.4360 O   0  0  0  0  0  0  0  0  0  0  0  0
  134.0250  125.9650  123.8450 C   0  0  0  0  0  0  0  0  0  0  0  0
  133.2730  125.9360  125.0220 C   0  0  0  0  0  0  0  0  0  0  0  0
  131.1573  123.3700  124.2728 H   0  0  0  0  0  0  0  0  0  0  0  0
  132.4913  123.4129  122.1646 H   0  0  0  0  0  0  0  0  0  0  0  0
  135.1755  126.0428  121.5670 H   0  0  0  0  0  0  0  0  0  0  0  0
  133.0417  124.1878  120.3343 H   0  0  0  0  0  0  0  0  0  0  0  0
  133.0007  126.0018  120.3842 H   0  0  0  0  0  0  0  0  0  0  0  0
  133.6914  125.0951  118.1648 H   0  0  0  0  0  0  0  0  0  0  0  0
  134.9346  126.1334  118.9294 H   0  0  0  0  0  0  0  0  0  0  0  0
  134.8560  123.1500  118.9590 H   0  0  0  0  0  0  0  0  0  0  0  0
  135.8600  124.0700  118.0490 H   0  0  0  0  0  0  0  0  0  0  0  0
  137.0465  123.2081  119.9492 H   0  0  0  0  0  0  0  0  0  0  0  0
  136.9391  125.0072  120.0033 H   0  0  0  0  0  0  0  0  0  0  0  0
  135.1247  123.0403  121.5335 H   0  0  0  0  0  0  0  0  0  0  0  0
  137.7177  124.3100  122.0316 H   0  0  0  0  0  0  0  0  0  0  0  0
  136.4516  124.8624  123.2179 H   0  0  0  0  0  0  0  0  0  0  0  0
  136.9462  124.1984  125.3877 H   0  0  0  0  0  0  0  0  0  0  0  0
  135.4449  123.9413  127.3808 H   0  0  0  0  0  0  0  0  0  0  0  0
  134.9024  120.9380  123.3824 H   0  0  0  0  0  0  0  0  0  0  0  0
  131.6894  121.1682  126.8081 H   0  0  0  0  0  0  0  0  0  0  0  0
  132.9559  120.0394  127.4809 H   0  0  0  0  0  0  0  0  0  0  0  0
  134.8317  126.7041  123.7317 H   0  0  0  0  0  0  0  0  0  0  0  0
  133.4877  126.6477  125.8328 H   0  0  0  0  0  0  0  0  0  0  0  0
  1  2  1  0
  2  3  1  0
  3  4  2  0
  4  5  1  0
  5  6  1  0
  6  7  1  0
  7  8  1  0
  8  9  1  0
  9 10  1  0
 10 11  1  0
 11 12  1  0
 12 13  1  0
 13 14  1  0
 14 15  1  0
 15 16  2  0
 16 17  1  0
 17 18  2  0
 18 19  1  0
 18 20  1  0
 20 21  1  0
 21 22  1  0
  5 23  2  0
 23 24  1  0
 24  2  2  0
 11  6  1  0
 19 14  2  0
 22 17  1  0
  3 25  1  0
  4 26  1  0
  6 27  1  1
  7 28  1  0
  7 29  1  0
  8 30  1  0
  8 31  1  0
  9 32  1  0
  9 33  1  0
 10 34  1  0
 10 35  1  0
 11 36  1  6
 12 37  1  0
 12 38  1  0
 15 39  1  0
 16 40  1  0
 19 41  1  0
 21 42  1  0
 21 43  1  0
 23 44  1  0
 24 45  1  0
M  CHG  1   9   1
M  END
>  <meeko>  (15) 
{"is_sidechain": [false], "free_energy": -8.597, "intermolecular_energy": -9.607, "internal_energy": -2.117}

$$$$
seed-2403
     RDKit          3D

 45 48  0  0  0  0  0  0  0  0999 V2000
  130.5770  123.0390  126.8770 F   0  0  0  0  0  0  0  0  0  0  0  0
  131.6160  123.6240  126.2670 C   0  0  0  0  0  0  0  0  0  0  0  0
  131.4830  124.9150  125.7790 C   0  0  0  0  0  0  0  0  0  0  0  0
  132.5640  125.5260  125.1390 C   0  0  0  0  0  0  0  0  0  0  0  0
  133.7840  124.8440  124.9850 C   0  0  0  0  0  0  0  0  0  0  0  0
  134.9780  125.4820  124.2950 C   0  0  2  0  0  0  0  0  0  0  0  0
  135.5030  126.6360  125.1770 C   0  0  0  0  0  0  0  0  0  0  0  0
  136.7090  127.3180  124.5610 C   0  0  0  0  0  0  0  0  0  0  0  0
  136.3490  127.7840  123.1920 N   0  0  0  0  0  0  0  0  0  0  0  0
  135.9330  126.6840  122.2770 C   0  0  0  0  0  0  0  0  0  0  0  0
  134.7060  125.9600  122.8380 C   0  0  1  0  0  0  0  0  0  0  0  0
  134.3660  124.8010  121.8730 C   0  0  0  0  0  0  0  0  0  0  0  0
  134.3130  125.2140  120.5150 O   0  0  0  0  0  0  0  0  0  0  0  0
  134.4520  124.2810  119.5250 C   0  0  0  0  0  0  0  0  0  0  0  0
  134.0050  124.7140  118.2590 C   0  0  0  0  0  0  0  0  0  0  0  0
  134.0930  123.8880  117.1350 C   0  0  0  0  0  0  0  0  0  0  0  0
  134.6280  122.6320  117.3120 C   0  0  0  0  0  0  0  0  0  0  0  0
  135.0600  122.2020  118.5440 C   0  0  0  0  0  0  0  0  0  0  0  0
  134.9830  122.9980  119.6710 C   0  0  0  0  0  0  0  0  0  0  0  0
  135.5580  120.9360  118.5060 O   0  0  0  0  0  0  0  0  0  0  0  0
  135.3520  120.6060  117.1130 C   0  0  0  0  0  0  0  0  0  0  0  0
  134.7970  121.6930  116.3460 O   0  0  0  0  0  0  0  0  0  0  0  0
  133.8940  123.5370  125.4940 C   0  0  0  0  0  0  0  0  0  0  0  0
  132.8100  122.9300  126.1320 C   0  0  0  0  0  0  0  0  0  0  0  0
  130.5317  125.4550  125.8951 H   0  0  0  0  0  0  0  0  0  0  0  0
  132.4598  126.5503  124.7518 H   0  0  0  0  0  0  0  0  0  0  0  0
  135.7434  124.6997  124.1845 H   0  0  0  0  0  0  0  0  0  0  0  0
  134.7016  127.3786  125.3044 H   0  0  0  0  0  0  0  0  0  0  0  0
  135.8097  126.2119  126.1445 H   0  0  0  0  0  0  0  0  0  0  0  0
  137.0030  128.1789  125.1794 H   0  0  0  0  0  0  0  0  0  0  0  0
  137.5508  126.6120  124.5065 H   0  0  0  0  0  0  0  0  0  0  0  0
  135.6030  128.4930  123.2530 H   0  0  0  0  0  0  0  0  0  0  0  0
  137.1570  128.2760  122.7860 H   0  0  0  0  0  0  0  0  0  0  0  0
  135.6861  127.1058  121.2915 H   0  0  0  0  0  0  0  0  0  0  0  0
  136.7603  125.9651  122.1833 H   0  0  0  0  0  0  0  0  0  0  0  0
  133.8367  126.6311  122.9012 H   0  0  0  0  0  0  0  0  0  0  0  0
  135.1362  124.0221  121.9738 H   0  0  0  0  0  0  0  0  0  0  0  0
  133.3684  124.4254  122.1445 H   0  0  0  0  0  0  0  0  0  0  0  0
  133.5784  125.7225  118.1543 H   0  0  0  0  0  0  0  0  0  0  0  0
  133.7482  124.2283  116.1474 H   0  0  0  0  0  0  0  0  0  0  0  0
  135.3283  122.6333  120.6497 H   0  0  0  0  0  0  0  0  0  0  0  0
  136.3209  120.3273  116.6732 H   0  0  0  0  0  0  0  0  0  0  0  0
  134.6277  119.7789  117.0776 H   0  0  0  0  0  0  0  0  0  0  0  0
  134.8417  122.9886  125.3886 H   0  0  0  0  0  0  0  0  0  0  0  0
  132.9023  121.9069  126.5255 H   0  0  0  0  0  0  0  0  0  0  0  0
  1  2  1  0
  2  3  1  0
  3  4  2  0
  4  5  1  0
  5  6  1  0
  6  7  1  0
  7  8  1  0
  8  9  1  0
  9 10  1  0
 10 11  1  0
 11 12  1  0
 12 13  1  0
 13 14  1  0
 14 15  1  0
 15 16  2  0
 16 17  1  0
 17 18  2  0
 18 19  1  0
 18 20  1  0
 20 21  1  0
 21 22  1  0
  5 23  2  0
 23 24  1  0
 24  2  2  0
 11  6  1  0
 19 14  2  0
 22 17  1  0
  3 25  1  0
  4 26  1  0
  6 27  1  6
  7 28  1  0
  7 29  1  0
  8 30  1  0
  8 31  1  0
  9 32  1  0
  9 33  1  0
 10 34  1  0
 10 35  1  0
 11 36  1  1
 12 37  1  0
 12 38  1  0
 15 39  1  0
 16 40  1  0
 19 41  1  0
 21 42  1  0
 21 43  1  0
 23 44  1  0
 24 45  1  0
M  CHG  1   9   1
M  END
>  <meeko>  (16) 
{"is_sidechain": [false], "free_energy": -8.105, "intermolecular_energy": -10.412, "internal_energy": -0.706}

$$$$
seed-2403
     RDKit          3D

 45 48  0  0  0  0  0  0  0  0999 V2000
  130.1430  127.4750  131.7950 F   0  0  0  0  0  0  0  0  0  0  0  0
  130.2610  127.5260  130.4630 C   0  0  0  0  0  0  0  0  0  0  0  0
  131.2280  128.3420  129.8930 C   0  0  0  0  0  0  0  0  0  0  0  0
  131.3500  128.4010  128.5030 C   0  0  0  0  0  0  0  0  0  0  0  0
  130.5020  127.6420  127.6760 C   0  0  0  0  0  0  0  0  0  0  0  0
  130.6120  127.6840  126.1610 C   0  0  2  0  0  0  0  0  0  0  0  0
  129.3440  128.3560  125.5900 C   0  0  0  0  0  0  0  0  0  0  0  0
  129.3840  128.4500  124.0770 C   0  0  0  0  0  0  0  0  0  0  0  0
  129.5890  127.0830  123.5180 N   0  0  0  0  0  0  0  0  0  0  0  0
  130.8560  126.4390  123.9670 C   0  0  0  0  0  0  0  0  0  0  0  0
  130.8730  126.3030  125.4920 C   0  0  1  0  0  0  0  0  0  0  0  0
  132.2320  125.6830  125.8900 C   0  0  0  0  0  0  0  0  0  0  0  0
  132.8980  125.0680  124.7950 O   0  0  0  0  0  0  0  0  0  0  0  0
  133.9440  124.2220  125.0370 C   0  0  0  0  0  0  0  0  0  0  0  0
  134.9270  124.2190  124.0250 C   0  0  0  0  0  0  0  0  0  0  0  0
  136.0710  123.4220  124.1260 C   0  0  0  0  0  0  0  0  0  0  0  0
  136.2000  122.6380  125.2490 C   0  0  0  0  0  0  0  0  0  0  0  0
  135.2430  122.6320  126.2350 C   0  0  0  0  0  0  0  0  0  0  0  0
  134.1020  123.4080  126.1590 C   0  0  0  0  0  0  0  0  0  0  0  0
  135.5590  121.7930  127.2600 O   0  0  0  0  0  0  0  0  0  0  0  0
  136.8080  121.2420  126.7830 C   0  0  0  0  0  0  0  0  0  0  0  0
  137.2360  121.8040  125.5260 O   0  0  0  0  0  0  0  0  0  0  0  0
  129.5340  126.8200  128.2790 C   0  0  0  0  0  0  0  0  0  0  0  0
  129.4150  126.7640  129.6700 C   0  0  0  0  0  0  0  0  0  0  0  0
  131.8947  128.9391  130.5325 H   0  0  0  0  0  0  0  0  0  0  0  0
  132.1166  129.0472  128.0505 H   0  0  0  0  0  0  0  0  0  0  0  0
  131.5068  128.2756  125.9175 H   0  0  0  0  0  0  0  0  0  0  0  0
  128.4647  127.7650  125.8861 H   0  0  0  0  0  0  0  0  0  0  0  0
  129.2901  129.3781  125.9929 H   0  0  0  0  0  0  0  0  0  0  0  0
  128.4340  128.8627  123.7066 H   0  0  0  0  0  0  0  0  0  0  0  0
  130.2067  129.1099  123.7643 H   0  0  0  0  0  0  0  0  0  0  0  0
  128.7840  126.4860  123.7600 H   0  0  0  0  0  0  0  0  0  0  0  0
  129.5830  127.1410  122.4900 H   0  0  0  0  0  0  0  0  0  0  0  0
  130.9359  125.4403  123.5129 H   0  0  0  0  0  0  0  0  0  0  0  0
  131.7051  127.0647  123.6546 H   0  0  0  0  0  0  0  0  0  0  0  0
  130.0682  125.6423  125.8467 H   0  0  0  0  0  0  0  0  0  0  0  0
  132.8770  126.4782  126.2921 H   0  0  0  0  0  0  0  0  0  0  0  0
  132.0334  124.9017  126.6384 H   0  0  0  0  0  0  0  0  0  0  0  0
  134.7905  124.8564  123.1390 H   0  0  0  0  0  0  0  0  0  0  0  0
  136.8384  123.4218  123.3379 H   0  0  0  0  0  0  0  0  0  0  0  0
  133.3442  123.3847  126.9560 H   0  0  0  0  0  0  0  0  0  0  0  0
  137.5859  121.4373  127.5358 H   0  0  0  0  0  0  0  0  0  0  0  0
  136.6487  120.1657  126.6214 H   0  0  0  0  0  0  0  0  0  0  0  0
  128.8641  126.2154  127.6500 H   0  0  0  0  0  0  0  0  0  0  0  0
  128.6544  126.1190  130.1341 H   0  0  0  0  0  0  0  0  0  0  0  0
  1  2  1  0
  2  3  1  0
  3  4  2  0
  4  5  1  0
  5  6  1  0
  6  7  1  0
  7  8  1  0
  8  9  1  0
  9 10  1  0
 10 11  1  0
 11 12  1  0
 12 13  1  0
 13 14  1  0
 14 15  1  0
 15 16  2  0
 16 17  1  0
 17 18  2  0
 18 19  1  0
 18 20  1  0
 20 21  1  0
 21 22  1  0
  5 23  2  0
 23 24  1  0
 24  2  2  0
 11  6  1  0
 19 14  2  0
 22 17  1  0
  3 25  1  0
  4 26  1  0
  6 27  1  1
  7 28  1  0
  7 29  1  0
  8 30  1  0
  8 31  1  0
  9 32  1  0
  9 33  1  0
 10 34  1  0
 10 35  1  0
 11 36  1  6
 12 37  1  0
 12 38  1  0
 15 39  1  0
 16 40  1  0
 19 41  1  0
 21 42  1  0
 21 43  1  0
 23 44  1  0
 24 45  1  0
M  CHG  1   9   1
M  END
>  <meeko>  (17) 
{"is_sidechain": [false], "free_energy": -8.082, "intermolecular_energy": -10.382, "internal_energy": -0.707}

$$$$
seed-2403
     RDKit          3D

 45 48  0  0  0  0  0  0  0  0999 V2000
  130.2450  127.5350  131.6950 F   0  0  0  0  0  0  0  0  0  0  0  0
  130.3410  127.5560  130.3590 C   0  0  0  0  0  0  0  0  0  0  0  0
  131.3230  128.3280  129.7570 C   0  0  0  0  0  0  0  0  0  0  0  0
  131.4220  128.3560  128.3640 C   0  0  0  0  0  0  0  0  0  0  0  0
  130.5360  127.6090  127.5680 C   0  0  0  0  0  0  0  0  0  0  0  0
  130.6200  127.6180  126.0500 C   0  0  2  0  0  0  0  0  0  0  0  0
  129.3430  128.2790  125.4860 C   0  0  0  0  0  0  0  0  0  0  0  0
  129.3580  128.3390  123.9700 C   0  0  0  0  0  0  0  0  0  0  0  0
  129.5520  126.9610  123.4390 N   0  0  0  0  0  0  0  0  0  0  0  0
  130.8260  126.3240  123.8800 C   0  0  0  0  0  0  0  0  0  0  0  0
  130.8680  126.2220  125.4070 C   0  0  1  0  0  0  0  0  0  0  0  0
  132.2340  125.6090  125.7960 C   0  0  0  0  0  0  0  0  0  0  0  0
  133.3230  126.2200  125.1170 O   0  0  0  0  0  0  0  0  0  0  0  0
  134.0020  125.5100  124.1660 C   0  0  0  0  0  0  0  0  0  0  0  0
  133.9910  124.1150  124.3710 C   0  0  0  0  0  0  0  0  0  0  0  0
  134.6240  123.2440  123.4800 C   0  0  0  0  0  0  0  0  0  0  0  0
  135.2620  123.8010  122.3960 C   0  0  0  0  0  0  0  0  0  0  0  0
  135.2820  125.1600  122.1940 C   0  0  0  0  0  0  0  0  0  0  0  0
  134.6670  126.0430  123.0600 C   0  0  0  0  0  0  0  0  0  0  0  0
  135.9610  125.5070  121.0660 O   0  0  0  0  0  0  0  0  0  0  0  0
  136.4000  124.2080  120.6040 C   0  0  0  0  0  0  0  0  0  0  0  0
  135.9270  123.1210  121.4260 O   0  0  0  0  0  0  0  0  0  0  0  0
  129.5520  126.8310  128.2030 C   0  0  0  0  0  0  0  0  0  0  0  0
  129.4560  126.8070  129.5970 C   0  0  0  0  0  0  0  0  0  0  0  0
  132.0201  128.9151  130.3730 H   0  0  0  0  0  0  0  0  0  0  0  0
  132.2005  128.9682  127.8853 H   0  0  0  0  0  0  0  0  0  0  0  0
  131.5110  128.2032  125.7784 H   0  0  0  0  0  0  0  0  0  0  0  0
  128.4682  127.6961  125.8100 H   0  0  0  0  0  0  0  0  0  0  0  0
  129.2965  129.3098  125.8671 H   0  0  0  0  0  0  0  0  0  0  0  0
  128.4024  128.7447  123.6062 H   0  0  0  0  0  0  0  0  0  0  0  0
  130.1761  128.9905  123.6290 H   0  0  0  0  0  0  0  0  0  0  0  0
  128.7510  126.3700  123.7070 H   0  0  0  0  0  0  0  0  0  0  0  0
  129.5290  126.9950  122.4100 H   0  0  0  0  0  0  0  0  0  0  0  0
  130.8964  125.3153  123.4468 H   0  0  0  0  0  0  0  0  0  0  0  0
  131.6710  126.9402  123.5391 H   0  0  0  0  0  0  0  0  0  0  0  0
  130.0682  125.5707  125.7894 H   0  0  0  0  0  0  0  0  0  0  0  0
  132.3800  125.7338  126.8791 H   0  0  0  0  0  0  0  0  0  0  0  0
  132.2160  124.5477  125.5074 H   0  0  0  0  0  0  0  0  0  0  0  0
  133.4736  123.7038  125.2503 H   0  0  0  0  0  0  0  0  0  0  0  0
  134.6125  122.1557  123.6393 H   0  0  0  0  0  0  0  0  0  0  0  0
  134.7000  127.1284  122.8844 H   0  0  0  0  0  0  0  0  0  0  0  0
  136.0291  124.0580  119.5793 H   0  0  0  0  0  0  0  0  0  0  0  0
  137.4989  124.1990  120.6521 H   0  0  0  0  0  0  0  0  0  0  0  0
  128.8520  126.2364  127.5977 H   0  0  0  0  0  0  0  0  0  0  0  0
  128.6828  126.1975  130.0875 H   0  0  0  0  0  0  0  0  0  0  0  0
  1  2  1  0
  2  3  1  0
  3  4  2  0
  4  5  1  0
  5  6  1  0
  6  7  1  0
  7  8  1  0
  8  9  1  0
  9 10  1  0
 10 11  1  0
 11 12  1  0
 12 13  1  0
 13 14  1  0
 14 15  1  0
 15 16  2  0
 16 17  1  0
 17 18  2  0
 18 19  1  0
 18 20  1  0
 20 21  1  0
 21 22  1  0
  5 23  2  0
 23 24  1  0
 24  2  2  0
 11  6  1  0
 19 14  2  0
 22 17  1  0
  3 25  1  0
  4 26  1  0
  6 27  1  1
  7 28  1  0
  7 29  1  0
  8 30  1  0
  8 31  1  0
  9 32  1  0
  9 33  1  0
 10 34  1  0
 10 35  1  0
 11 36  1  1
 12 37  1  0
 12 38  1  0
 15 39  1  0
 16 40  1  0
 19 41  1  0
 21 42  1  0
 21 43  1  0
 23 44  1  0
 24 45  1  0
M  CHG  1   9   1
M  END
>  <meeko>  (18) 
{"is_sidechain": [false], "free_energy": -7.823, "intermolecular_energy": -10.122, "internal_energy": -0.648}

$$$$
seed-2403
     RDKit          3D

 45 48  0  0  0  0  0  0  0  0999 V2000
  130.0890  126.4480  124.3110 F   0  0  0  0  0  0  0  0  0  0  0  0
  131.1820  126.0600  123.6420 C   0  0  0  0  0  0  0  0  0  0  0  0
  131.2210  124.7990  123.0670 C   0  0  0  0  0  0  0  0  0  0  0  0
  132.3610  124.3900  122.3730 C   0  0  0  0  0  0  0  0  0  0  0  0
  133.4720  125.2450  122.2530 C   0  0  0  0  0  0  0  0  0  0  0  0
  134.7260  124.8300  121.5030 C   0  0  2  0  0  0  0  0  0  0  0  0
  134.3370  124.4440  120.0600 C   0  0  0  0  0  0  0  0  0  0  0  0
  135.5430  124.0290  119.2380 C   0  0  0  0  0  0  0  0  0  0  0  0
  136.2420  122.9170  119.9420 N   0  0  0  0  0  0  0  0  0  0  0  0
  136.7240  123.2810  121.3040 C   0  0  0  0  0  0  0  0  0  0  0  0
  135.5480  123.6990  122.1910 C   0  0  1  0  0  0  0  0  0  0  0  0
  136.1240  124.1180  123.5630 C   0  0  0  0  0  0  0  0  0  0  0  0
  135.8820  123.1530  124.5780 O   0  0  0  0  0  0  0  0  0  0  0  0
  134.6470  123.0920  125.1630 C   0  0  0  0  0  0  0  0  0  0  0  0
  134.1310  121.7850  125.2810 C   0  0  0  0  0  0  0  0  0  0  0  0
  132.8870  121.5450  125.8720 C   0  0  0  0  0  0  0  0  0  0  0  0
  132.1830  122.6350  126.3310 C   0  0  0  0  0  0  0  0  0  0  0  0
  132.6780  123.9110  126.2130 C   0  0  0  0  0  0  0  0  0  0  0  0
  133.9030  124.1760  125.6310 C   0  0  0  0  0  0  0  0  0  0  0  0
  131.8330  124.8450  126.7290 O   0  0  0  0  0  0  0  0  0  0  0  0
  130.7300  124.0090  127.1500 C   0  0  0  0  0  0  0  0  0  0  0  0
  130.9660  122.6030  126.9330 O   0  0  0  0  0  0  0  0  0  0  0  0
  133.4060  126.5200  122.8420 C   0  0  0  0  0  0  0  0  0  0  0  0
  132.2630  126.9250  123.5350 C   0  0  0  0  0  0  0  0  0  0  0  0
  130.3573  124.1238  123.1573 H   0  0  0  0  0  0  0  0  0  0  0  0
  132.3911  123.3900  121.9157 H   0  0  0  0  0  0  0  0  0  0  0  0
  135.4041  125.6962  121.5025 H   0  0  0  0  0  0  0  0  0  0  0  0
  133.6261  123.6053  120.0961 H   0  0  0  0  0  0  0  0  0  0  0  0
  133.8872  125.3265  119.5817 H   0  0  0  0  0  0  0  0  0  0  0  0
  135.2146  123.6896  118.2445 H   0  0  0  0  0  0  0  0  0  0  0  0
  136.2255  124.8831  119.1166 H   0  0  0  0  0  0  0  0  0  0  0  0
  135.6190  122.0960  119.9960 H   0  0  0  0  0  0  0  0  0  0  0  0
  137.0410  122.6120  119.3690 H   0  0  0  0  0  0  0  0  0  0  0  0
  137.2275  122.4129  121.7545 H   0  0  0  0  0  0  0  0  0  0  0  0
  137.4263  124.1236  121.2212 H   0  0  0  0  0  0  0  0  0  0  0  0
  134.8440  122.8678  122.3441 H   0  0  0  0  0  0  0  0  0  0  0  0
  137.2105  124.2564  123.4610 H   0  0  0  0  0  0  0  0  0  0  0  0
  135.6214  125.0492  123.8636 H   0  0  0  0  0  0  0  0  0  0  0  0
  134.7192  120.9371  124.9003 H   0  0  0  0  0  0  0  0  0  0  0  0
  132.4865  120.5249  125.9665 H   0  0  0  0  0  0  0  0  0  0  0  0
  134.2787  125.2058  125.5397 H   0  0  0  0  0  0  0  0  0  0  0  0
  130.5578  124.1726  128.2240 H   0  0  0  0  0  0  0  0  0  0  0  0
  129.8569  124.2908  126.5431 H   0  0  0  0  0  0  0  0  0  0  0  0
  134.2625  127.2049  122.7562 H   0  0  0  0  0  0  0  0  0  0  0  0
  132.2193  127.9239  123.9936 H   0  0  0  0  0  0  0  0  0  0  0  0
  1  2  1  0
  2  3  1  0
  3  4  2  0
  4  5  1  0
  5  6  1  0
  6  7  1  0
  7  8  1  0
  8  9  1  0
  9 10  1  0
 10 11  1  0
 11 12  1  0
 12 13  1  0
 13 14  1  0
 14 15  1  0
 15 16  2  0
 16 17  1  0
 17 18  2  0
 18 19  1  0
 18 20  1  0
 20 21  1  0
 21 22  1  0
  5 23  2  0
 23 24  1  0
 24  2  2  0
 11  6  1  0
 19 14  2  0
 22 17  1  0
  3 25  1  0
  4 26  1  0
  6 27  1  6
  7 28  1  0
  7 29  1  0
  8 30  1  0
  8 31  1  0
  9 32  1  0
  9 33  1  0
 10 34  1  0
 10 35  1  0
 11 36  1  1
 12 37  1  0
 12 38  1  0
 15 39  1  0
 16 40  1  0
 19 41  1  0
 21 42  1  0
 21 43  1  0
 23 44  1  0
 24 45  1  0
M  CHG  1   9   1
M  END
>  <meeko>  (19) 
{"is_sidechain": [false], "free_energy": -7.235, "intermolecular_energy": -8.29, "internal_energy": -1.754}

$$$$
seed-2403
     RDKit          3D

 45 48  0  0  0  0  0  0  0  0999 V2000
  129.0340  128.2230  126.8650 F   0  0  0  0  0  0  0  0  0  0  0  0
  129.9280  127.6860  126.0250 C   0  0  0  0  0  0  0  0  0  0  0  0
  129.5920  127.5080  124.6920 C   0  0  0  0  0  0  0  0  0  0  0  0
  130.5210  126.9440  123.8140 C   0  0  0  0  0  0  0  0  0  0  0  0
  131.7930  126.5550  124.2710 C   0  0  0  0  0  0  0  0  0  0  0  0
  132.8250  125.9410  123.3400 C   0  0  2  0  0  0  0  0  0  0  0  0
  133.4630  127.0650  122.4950 C   0  0  0  0  0  0  0  0  0  0  0  0
  134.5200  126.5320  121.5460 C   0  0  0  0  0  0  0  0  0  0  0  0
  133.9080  125.4740  120.6940 N   0  0  0  0  0  0  0  0  0  0  0  0
  133.3690  124.3200  121.4680 C   0  0  0  0  0  0  0  0  0  0  0  0
  132.2840  124.7910  122.4400 C   0  0  1  0  0  0  0  0  0  0  0  0
  131.8140  123.5590  123.2480 C   0  0  0  0  0  0  0  0  0  0  0  0
  132.0920  123.6740  124.6360 O   0  0  0  0  0  0  0  0  0  0  0  0
  133.1650  123.0090  125.1620 C   0  0  0  0  0  0  0  0  0  0  0  0
  132.8300  122.0850  126.1730 C   0  0  0  0  0  0  0  0  0  0  0  0
  133.8080  121.3090  126.8020 C   0  0  0  0  0  0  0  0  0  0  0  0
  135.1120  121.4850  126.3990 C   0  0  0  0  0  0  0  0  0  0  0  0
  135.4450  122.3880  125.4190 C   0  0  0  0  0  0  0  0  0  0  0  0
  134.4990  123.1680  124.7830 C   0  0  0  0  0  0  0  0  0  0  0  0
  136.7820  122.4090  125.1640 O   0  0  0  0  0  0  0  0  0  0  0  0
  137.2560  121.4400  126.1290 C   0  0  0  0  0  0  0  0  0  0  0  0
  136.1940  120.8260  126.8870 O   0  0  0  0  0  0  0  0  0  0  0  0
  132.1100  126.7520  125.6270 C   0  0  0  0  0  0  0  0  0  0  0  0
  131.1780  127.3150  126.5000 C   0  0  0  0  0  0  0  0  0  0  0  0
  128.5989  127.8093  124.3273 H   0  0  0  0  0  0  0  0  0  0  0  0
  130.2552  126.8029  122.7560 H   0  0  0  0  0  0  0  0  0  0  0  0
  133.5824  125.4551  123.9727 H   0  0  0  0  0  0  0  0  0  0  0  0
  132.6748  127.5588  121.9077 H   0  0  0  0  0  0  0  0  0  0  0  0
  133.9492  127.7728  123.1825 H   0  0  0  0  0  0  0  0  0  0  0  0
  134.8928  127.3490  120.9108 H   0  0  0  0  0  0  0  0  0  0  0  0
  135.3602  126.1123  122.1187 H   0  0  0  0  0  0  0  0  0  0  0  0
  133.1630  125.8860  120.1120 H   0  0  0  0  0  0  0  0  0  0  0  0
  134.6150  125.1340  120.0270 H   0  0  0  0  0  0  0  0  0  0  0  0
  132.9380  123.5857  120.7715 H   0  0  0  0  0  0  0  0  0  0  0  0
  134.1877  123.8608  122.0415 H   0  0  0  0  0  0  0  0  0  0  0  0
  131.4196  125.2114  121.9051 H   0  0  0  0  0  0  0  0  0  0  0  0
  130.7281  123.4446  123.1151 H   0  0  0  0  0  0  0  0  0  0  0  0
  132.3649  122.6849  122.8706 H   0  0  0  0  0  0  0  0  0  0  0  0
  131.7777  121.9725  126.4729 H   0  0  0  0  0  0  0  0  0  0  0  0
  133.5455  120.5860  127.5883 H   0  0  0  0  0  0  0  0  0  0  0  0
  134.7870  123.8898  124.0045 H   0  0  0  0  0  0  0  0  0  0  0  0
  137.8035  120.6512  125.5922 H   0  0  0  0  0  0  0  0  0  0  0  0
  137.8983  121.9769  126.8425 H   0  0  0  0  0  0  0  0  0  0  0  0
  133.1016  126.4597  126.0029 H   0  0  0  0  0  0  0  0  0  0  0  0
  131.4330  127.4640  127.5596 H   0  0  0  0  0  0  0  0  0  0  0  0
  1  2  1  0
  2  3  1  0
  3  4  2  0
  4  5  1  0
  5  6  1  0
  6  7  1  0
  7  8  1  0
  8  9  1  0
  9 10  1  0
 10 11  1  0
 11 12  1  0
 12 13  1  0
 13 14  1  0
 14 15  1  0
 15 16  2  0
 16 17  1  0
 17 18  2  0
 18 19  1  0
 18 20  1  0
 20 21  1  0
 21 22  1  0
  5 23  2  0
 23 24  1  0
 24  2  2  0
 11  6  1  0
 19 14  2  0
 22 17  1  0
  3 25  1  0
  4 26  1  0
  6 27  1  1
  7 28  1  0
  7 29  1  0
  8 30  1  0
  8 31  1  0
  9 32  1  0
  9 33  1  0
 10 34  1  0
 10 35  1  0
 11 36  1  6
 12 37  1  0
 12 38  1  0
 15 39  1  0
 16 40  1  0
 19 41  1  0
 21 42  1  0
 21 43  1  0
 23 44  1  0
 24 45  1  0
M  CHG  1   9   1
M  END
>  <meeko>  (20) 
{"is_sidechain": [false], "free_energy": -6.253, "intermolecular_energy": -8.299, "internal_energy": -0.532}

$$$$
