seed-2402
     RDKit          3D

 45 48  0  0  0  0  0  0  0  0999 V2000
  133.1610  120.4880  126.2510 F   0  0  0  0  0  0  0  0  0  0  0  0
  133.8960  121.5440  125.8820 C   0  0  0  0  0  0  0  0  0  0  0  0
  134.9180  121.3770  124.9580 C   0  0  0  0  0  0  0  0  0  0  0  0
  135.6900  122.4760  124.5750 C   0  0  0  0  0  0  0  0  0  0  0  0
  135.4410  123.7500  125.1160 C   0  0  0  0  0  0  0  0  0  0  0  0
  136.2610  124.9650  124.7180 C   0  0  2  0  0  0  0  0  0  0  0  0
  137.2290  125.3110  125.8700 C   0  0  0  0  0  0  0  0  0  0  0  0
  138.0980  126.5100  125.5420 C   0  0  0  0  0  0  0  0  0  0  0  0
  137.2160  127.6590  125.1930 N   0  0  0  0  0  0  0  0  0  0  0  0
  136.3360  127.4010  124.0180 C   0  0  0  0  0  0  0  0  0  0  0  0
  135.4200  126.2040  124.2910 C   0  0  1  0  0  0  0  0  0  0  0  0
  134.5800  125.9580  123.0170 C   0  0  0  0  0  0  0  0  0  0  0  0
  135.3180  126.1760  121.8220 O   0  0  0  0  0  0  0  0  0  0  0  0
  135.2260  125.2700  120.8030 C   0  0  0  0  0  0  0  0  0  0  0  0
  135.9060  124.0590  121.0470 C   0  0  0  0  0  0  0  0  0  0  0  0
  135.8960  123.0180  120.1130 C   0  0  0  0  0  0  0  0  0  0  0  0
  135.2010  123.2230  118.9440 C   0  0  0  0  0  0  0  0  0  0  0  0
  134.5420  124.4030  118.6970 C   0  0  0  0  0  0  0  0  0  0  0  0
  134.5370  125.4480  119.6020 C   0  0  0  0  0  0  0  0  0  0  0  0
  133.9150  124.4050  117.4890 O   0  0  0  0  0  0  0  0  0  0  0  0
  134.2900  123.1020  116.9880 C   0  0  0  0  0  0  0  0  0  0  0  0
  135.0750  122.3350  117.9240 O   0  0  0  0  0  0  0  0  0  0  0  0
  134.3960  123.8930  126.0470 C   0  0  0  0  0  0  0  0  0  0  0  0
  133.6280  122.7910  126.4280 C   0  0  0  0  0  0  0  0  0  0  0  0
  135.1190  120.3840  124.5295 H   0  0  0  0  0  0  0  0  0  0  0  0
  136.5006  122.3438  123.8432 H   0  0  0  0  0  0  0  0  0  0  0  0
  136.8209  124.6933  123.8110 H   0  0  0  0  0  0  0  0  0  0  0  0
  136.6413  125.5348  126.7725 H   0  0  0  0  0  0  0  0  0  0  0  0
  137.8898  124.4462  126.0295 H   0  0  0  0  0  0  0  0  0  0  0  0
  138.7155  126.7692  126.4146 H   0  0  0  0  0  0  0  0  0  0  0  0
  138.7579  126.2735  124.6943 H   0  0  0  0  0  0  0  0  0  0  0  0
  136.6450  127.9180  126.0110 H   0  0  0  0  0  0  0  0  0  0  0  0
  137.8040  128.4830  125.0010 H   0  0  0  0  0  0  0  0  0  0  0  0
  135.7205  128.2917  123.8233 H   0  0  0  0  0  0  0  0  0  0  0  0
  136.9643  127.1779  123.1431 H   0  0  0  0  0  0  0  0  0  0  0  0
  134.7358  126.4035  125.1289 H   0  0  0  0  0  0  0  0  0  0  0  0
  134.2242  124.9172  123.0258 H   0  0  0  0  0  0  0  0  0  0  0  0
  133.7449  126.6739  123.0267 H   0  0  0  0  0  0  0  0  0  0  0  0
  136.4555  123.9304  121.9912 H   0  0  0  0  0  0  0  0  0  0  0  0
  136.4234  122.0722  120.3059 H   0  0  0  0  0  0  0  0  0  0  0  0
  134.0083  126.3875  119.3833 H   0  0  0  0  0  0  0  0  0  0  0  0
  133.3732  122.5394  116.7578 H   0  0  0  0  0  0  0  0  0  0  0  0
  134.9127  123.2629  116.0956 H   0  0  0  0  0  0  0  0  0  0  0  0
  134.1821  124.8819  126.4786 H   0  0  0  0  0  0  0  0  0  0  0  0
  132.8139  122.9109  127.1580 H   0  0  0  0  0  0  0  0  0  0  0  0
  1  2  1  0
  2  3  1  0
  3  4  2  0
  4  5  1  0
  5  6  1  0
  6  7  1  0
  7  8  1  0
  8  9  1  0
  9 10  1  0
 10 11  1  0
 11 12  1  0
 12 13  1  0
 13 14  1  0
 14 15  1  0
 15 16  2  0
 16 17  1  0
 17 18  2  0
 18 19  1  0
 18 20  1  0
 20 21  1  0
 21 22  1  0
  5 23  2  0
 23 24  1  0
 24  2  2  0
 11  6  1  0
 19 14  2  0
 22 17  1  0
  3 25  1  0
  4 26  1  0
  6 27  1  6
  7 28  1  0
  7 29  1  0
  8 30  1  0
  8 31  1  0
  9 32  1  0
  9 33  1  0
 10 34  1  0
 10 35  1  0
 11 36  1  1
 12 37  1  0
 12 38  1  0
 15 39  1  0
 16 40  1  0
 19 41  1  0
 21 42  1  0
 21 43  1  0
 23 44  1  0
 24 45  1  0
M  CHG  1   9   1
M  END
>  <meeko>  (1) 
{"is_sidechain": [false], "free_energy": -10.451, "intermolecular_energy": -12.895, "internal_energy": -1.114}

$$$$
seed-2402
     RDKit          3D

 45 48  0  0  0  0  0  0  0  0999 V2000
  136.8860  120.1850  126.4090 F   0  0  0  0  0  0  0  0  0  0  0  0
  135.9080  121.0990  126.3820 C   0  0  0  0  0  0  0  0  0  0  0  0
  134.9670  121.0630  125.3630 C   0  0  0  0  0  0  0  0  0  0  0  0
  133.9480  122.0180  125.3300 C   0  0  0  0  0  0  0  0  0  0  0  0
  133.8680  123.0150  126.3190 C   0  0  0  0  0  0  0  0  0  0  0  0
  132.7710  124.0660  126.3110 C   0  0  2  0  0  0  0  0  0  0  0  0
  131.4120  123.3680  126.5300 C   0  0  0  0  0  0  0  0  0  0  0  0
  130.2610  124.3560  126.5490 C   0  0  0  0  0  0  0  0  0  0  0  0
  130.2850  125.1420  125.2830 N   0  0  0  0  0  0  0  0  0  0  0  0
  131.5440  125.9140  125.0830 C   0  0  0  0  0  0  0  0  0  0  0  0
  132.7480  124.9690  125.0410 C   0  0  1  0  0  0  0  0  0  0  0  0
  134.0180  125.8370  124.8910 C   0  0  0  0  0  0  0  0  0  0  0  0
  135.0430  125.1870  124.1520 O   0  0  0  0  0  0  0  0  0  0  0  0
  134.9280  125.0870  122.7930 C   0  0  0  0  0  0  0  0  0  0  0  0
  134.3960  126.2360  122.1740 C   0  0  0  0  0  0  0  0  0  0  0  0
  134.2290  126.3050  120.7880 C   0  0  0  0  0  0  0  0  0  0  0  0
  134.6020  125.2050  120.0500 C   0  0  0  0  0  0  0  0  0  0  0  0
  135.1150  124.0790  120.6480 C   0  0  0  0  0  0  0  0  0  0  0  0
  135.2880  123.9850  122.0150 C   0  0  0  0  0  0  0  0  0  0  0  0
  135.4230  123.1070  119.7460 O   0  0  0  0  0  0  0  0  0  0  0  0
  135.0050  123.7390  118.5140 C   0  0  0  0  0  0  0  0  0  0  0  0
  134.5190  125.0840  118.7000 O   0  0  0  0  0  0  0  0  0  0  0  0
  134.8320  123.0260  127.3430 C   0  0  0  0  0  0  0  0  0  0  0  0
  135.8490  122.0690  127.3720 C   0  0  0  0  0  0  0  0  0  0  0  0
  135.0230  120.2869  124.5855 H   0  0  0  0  0  0  0  0  0  0  0  0
  133.2011  121.9900  124.5229 H   0  0  0  0  0  0  0  0  0  0  0  0
  132.9847  124.7627  127.1349 H   0  0  0  0  0  0  0  0  0  0  0  0
  131.2478  122.6474  125.7153 H   0  0  0  0  0  0  0  0  0  0  0  0
  131.4429  122.8642  127.5074 H   0  0  0  0  0  0  0  0  0  0  0  0
  129.3080  123.8126  126.6293 H   0  0  0  0  0  0  0  0  0  0  0  0
  130.3611  125.0314  127.4114 H   0  0  0  0  0  0  0  0  0  0  0  0
  130.1260  124.5130  124.4820 H   0  0  0  0  0  0  0  0  0  0  0  0
  129.4850  125.7910  125.2800 H   0  0  0  0  0  0  0  0  0  0  0  0
  131.4835  126.4666  124.1338 H   0  0  0  0  0  0  0  0  0  0  0  0
  131.6697  126.6154  125.9210 H   0  0  0  0  0  0  0  0  0  0  0  0
  132.6904  124.2806  124.1850 H   0  0  0  0  0  0  0  0  0  0  0  0
  133.7479  126.7691  124.3730 H   0  0  0  0  0  0  0  0  0  0  0  0
  134.4088  126.0309  125.9008 H   0  0  0  0  0  0  0  0  0  0  0  0
  134.1061  127.0966  122.7947 H   0  0  0  0  0  0  0  0  0  0  0  0
  133.8157  127.2033  120.3061 H   0  0  0  0  0  0  0  0  0  0  0  0
  135.6956  123.0728  122.4752 H   0  0  0  0  0  0  0  0  0  0  0  0
  135.8645  123.7699  117.8282 H   0  0  0  0  0  0  0  0  0  0  0  0
  134.1729  123.1447  118.1086 H   0  0  0  0  0  0  0  0  0  0  0  0
  134.7846  123.7951  128.1280 H   0  0  0  0  0  0  0  0  0  0  0  0
  136.5996  122.0844  128.1760 H   0  0  0  0  0  0  0  0  0  0  0  0
  1  2  1  0
  2  3  1  0
  3  4  2  0
  4  5  1  0
  5  6  1  0
  6  7  1  0
  7  8  1  0
  8  9  1  0
  9 10  1  0
 10 11  1  0
 11 12  1  0
 12 13  1  0
 13 14  1  0
 14 15  1  0
 15 16  2  0
 16 17  1  0
 17 18  2  0
 18 19  1  0
 18 20  1  0
 20 21  1  0
 21 22  1  0
  5 23  2  0
 23 24  1  0
 24  2  2  0
 11  6  1  0
 19 14  2  0
 22 17  1  0
  3 25  1  0
  4 26  1  0
  6 27  1  1
  7 28  1  0
  7 29  1  0
  8 30  1  0
  8 31  1  0
  9 32  1  0
  9 33  1  0
 10 34  1  0
 10 35  1  0
 11 36  1  6
 12 37  1  0
 12 38  1  0
 15 39  1  0
 16 40  1  0
 19 41  1  0
 21 42  1  0
 21 43  1  0
 23 44  1  0
 24 45  1  0
M  CHG  1   9   1
M  END
>  <meeko>  (2) 
{"is_sidechain": [false], "free_energy": -9.79, "intermolecular_energy": -12.117, "internal_energy": -1.077}

$$$$
seed-2402
     RDKit          3D

 45 48  0  0  0  0  0  0  0  0999 V2000
  130.4790  127.6360  124.7730 F   0  0  0  0  0  0  0  0  0  0  0  0
  131.3120  126.5910  124.6960 C   0  0  0  0  0  0  0  0  0  0  0  0
  131.5580  126.0010  123.4650 C   0  0  0  0  0  0  0  0  0  0  0  0
  132.4230  124.9080  123.3820 C   0  0  0  0  0  0  0  0  0  0  0  0
  133.0460  124.3990  124.5360 C   0  0  0  0  0  0  0  0  0  0  0  0
  133.9930  123.2130  124.4780 C   0  0  2  0  0  0  0  0  0  0  0  0
  133.5810  122.1940  125.5620 C   0  0  0  0  0  0  0  0  0  0  0  0
  134.4730  120.9680  125.5600 C   0  0  0  0  0  0  0  0  0  0  0  0
  135.8890  121.4060  125.7180 N   0  0  0  0  0  0  0  0  0  0  0  0
  136.3590  122.3130  124.6330 C   0  0  0  0  0  0  0  0  0  0  0  0
  135.5020  123.5810  124.5900 C   0  0  1  0  0  0  0  0  0  0  0  0
  136.0050  124.4450  123.4110 C   0  0  0  0  0  0  0  0  0  0  0  0
  136.4050  123.6660  122.2910 O   0  0  0  0  0  0  0  0  0  0  0  0
  135.7980  123.8690  121.0830 C   0  0  0  0  0  0  0  0  0  0  0  0
  135.2110  125.1430  120.9400 C   0  0  0  0  0  0  0  0  0  0  0  0
  134.5650  125.5180  119.7590 C   0  0  0  0  0  0  0  0  0  0  0  0
  134.5200  124.5930  118.7410 C   0  0  0  0  0  0  0  0  0  0  0  0
  135.0850  123.3480  118.8760 C   0  0  0  0  0  0  0  0  0  0  0  0
  135.7270  122.9520  120.0330 C   0  0  0  0  0  0  0  0  0  0  0  0
  134.9350  122.5870  117.7580 O   0  0  0  0  0  0  0  0  0  0  0  0
  134.1760  123.4860  116.9170 C   0  0  0  0  0  0  0  0  0  0  0  0
  133.9430  124.7730  117.5240 O   0  0  0  0  0  0  0  0  0  0  0  0
  132.7840  125.0180  125.7710 C   0  0  0  0  0  0  0  0  0  0  0  0
  131.9170  126.1110  125.8490 C   0  0  0  0  0  0  0  0  0  0  0  0
  131.0738  126.3924  122.5582 H   0  0  0  0  0  0  0  0  0  0  0  0
  132.6190  124.4408  122.4056 H   0  0  0  0  0  0  0  0  0  0  0  0
  133.8959  122.7720  123.4749 H   0  0  0  0  0  0  0  0  0  0  0  0
  133.6460  122.6785  126.5474 H   0  0  0  0  0  0  0  0  0  0  0  0
  132.5535  121.8660  125.3459 H   0  0  0  0  0  0  0  0  0  0  0  0
  134.1950  120.3068  126.3940 H   0  0  0  0  0  0  0  0  0  0  0  0
  134.3540  120.4199  124.6138 H   0  0  0  0  0  0  0  0  0  0  0  0
  136.0090  121.8620  126.6360 H   0  0  0  0  0  0  0  0  0  0  0  0
  136.4930  120.5730  125.7500 H   0  0  0  0  0  0  0  0  0  0  0  0
  137.4070  122.5898  124.8203 H   0  0  0  0  0  0  0  0  0  0  0  0
  136.2730  121.7909  123.6687 H   0  0  0  0  0  0  0  0  0  0  0  0
  135.5985  124.1630  125.5184 H   0  0  0  0  0  0  0  0  0  0  0  0
  135.1946  125.1201  123.0987 H   0  0  0  0  0  0  0  0  0  0  0  0
  136.8869  125.0021  123.7601 H   0  0  0  0  0  0  0  0  0  0  0  0
  135.2626  125.8566  121.7755 H   0  0  0  0  0  0  0  0  0  0  0  0
  134.1103  126.5134  119.6474 H   0  0  0  0  0  0  0  0  0  0  0  0
  136.1674  121.9481  120.1239 H   0  0  0  0  0  0  0  0  0  0  0  0
  134.7295  123.6374  115.9786 H   0  0  0  0  0  0  0  0  0  0  0  0
  133.1930  123.0224  116.7475 H   0  0  0  0  0  0  0  0  0  0  0  0
  133.2659  124.6384  126.6840 H   0  0  0  0  0  0  0  0  0  0  0  0
  131.7151  126.5885  126.8192 H   0  0  0  0  0  0  0  0  0  0  0  0
  1  2  1  0
  2  3  1  0
  3  4  2  0
  4  5  1  0
  5  6  1  0
  6  7  1  0
  7  8  1  0
  8  9  1  0
  9 10  1  0
 10 11  1  0
 11 12  1  0
 12 13  1  0
 13 14  1  0
 14 15  1  0
 15 16  2  0
 16 17  1  0
 17 18  2  0
 18 19  1  0
 18 20  1  0
 20 21  1  0
 21 22  1  0
  5 23  2  0
 23 24  1  0
 24  2  2  0
 11  6  1  0
 19 14  2  0
 22 17  1  0
  3 25  1  0
  4 26  1  0
  6 27  1  6
  7 28  1  0
  7 29  1  0
  8 30  1  0
  8 31  1  0
  9 32  1  0
  9 33  1  0
 10 34  1  0
 10 35  1  0
 11 36  1  1
 12 37  1  0
 12 38  1  0
 15 39  1  0
 16 40  1  0
 19 41  1  0
 21 42  1  0
 21 43  1  0
 23 44  1  0
 24 45  1  0
M  CHG  1   9   1
M  END
>  <meeko>  (3) 
{"is_sidechain": [false], "free_energy": -9.304, "intermolecular_energy": -11.393, "internal_energy": -1.201}

$$$$
seed-2402
     RDKit          3D

 45 48  0  0  0  0  0  0  0  0999 V2000
  135.3340  121.9100  128.1180 F   0  0  0  0  0  0  0  0  0  0  0  0
  135.2610  122.2100  126.8150 C   0  0  0  0  0  0  0  0  0  0  0  0
  135.1070  121.1910  125.8870 C   0  0  0  0  0  0  0  0  0  0  0  0
  135.0340  121.5010  124.5270 C   0  0  0  0  0  0  0  0  0  0  0  0
  135.1160  122.8360  124.0910 C   0  0  0  0  0  0  0  0  0  0  0  0
  135.0390  123.2040  122.6190 C   0  0  2  0  0  0  0  0  0  0  0  0
  136.4740  123.3160  122.0580 C   0  0  0  0  0  0  0  0  0  0  0  0
  136.4820  123.6680  120.5830 C   0  0  0  0  0  0  0  0  0  0  0  0
  135.7090  124.9270  120.3880 N   0  0  0  0  0  0  0  0  0  0  0  0
  134.2870  124.8290  120.8240 C   0  0  0  0  0  0  0  0  0  0  0  0
  134.2090  124.4860  122.3140 C   0  0  1  0  0  0  0  0  0  0  0  0
  132.7150  124.3430  122.6830 C   0  0  0  0  0  0  0  0  0  0  0  0
  132.0730  125.5970  122.8700 O   0  0  0  0  0  0  0  0  0  0  0  0
  131.5430  125.9020  124.0940 C   0  0  0  0  0  0  0  0  0  0  0  0
  131.8390  124.9600  125.1000 C   0  0  0  0  0  0  0  0  0  0  0  0
  131.3880  125.1310  126.4120 C   0  0  0  0  0  0  0  0  0  0  0  0
  130.6390  126.2540  126.6830 C   0  0  0  0  0  0  0  0  0  0  0  0
  130.3420  127.1720  125.7050 C   0  0  0  0  0  0  0  0  0  0  0  0
  130.7740  127.0260  124.4010 C   0  0  0  0  0  0  0  0  0  0  0  0
  129.5970  128.2090  126.1760 O   0  0  0  0  0  0  0  0  0  0  0  0
  129.4260  127.8140  127.5570 C   0  0  0  0  0  0  0  0  0  0  0  0
  130.1180  126.5930  127.8900 O   0  0  0  0  0  0  0  0  0  0  0  0
  135.2680  123.8500  125.0530 C   0  0  0  0  0  0  0  0  0  0  0  0
  135.3400  123.5350  126.4120 C   0  0  0  0  0  0  0  0  0  0  0  0
  135.0427  120.1446  126.2200 H   0  0  0  0  0  0  0  0  0  0  0  0
  134.9112  120.6937  123.7900 H   0  0  0  0  0  0  0  0  0  0  0  0
  134.4878  122.3976  122.1131 H   0  0  0  0  0  0  0  0  0  0  0  0
  137.0120  124.0988  122.6127 H   0  0  0  0  0  0  0  0  0  0  0  0
  136.9621  122.3373  122.1762 H   0  0  0  0  0  0  0  0  0  0  0  0
  137.5179  123.8132  120.2427 H   0  0  0  0  0  0  0  0  0  0  0  0
  136.0254  122.8539  120.0010 H   0  0  0  0  0  0  0  0  0  0  0  0
  136.1770  125.7010  120.8830 H   0  0  0  0  0  0  0  0  0  0  0  0
  135.7410  125.1850  119.3920 H   0  0  0  0  0  0  0  0  0  0  0  0
  133.7862  125.7923  120.6470 H   0  0  0  0  0  0  0  0  0  0  0  0
  133.7908  124.0340  120.2480 H   0  0  0  0  0  0  0  0  0  0  0  0
  134.6492  125.2814  122.9334 H   0  0  0  0  0  0  0  0  0  0  0  0
  132.2028  123.8029  121.8731 H   0  0  0  0  0  0  0  0  0  0  0  0
  132.6593  123.7963  123.6359 H   0  0  0  0  0  0  0  0  0  0  0  0
  132.4372  124.0721  124.8474 H   0  0  0  0  0  0  0  0  0  0  0  0
  131.6223  124.3971  127.1972 H   0  0  0  0  0  0  0  0  0  0  0  0
  130.5208  127.7697  123.6311 H   0  0  0  0  0  0  0  0  0  0  0  0
  129.8092  128.6194  128.2007 H   0  0  0  0  0  0  0  0  0  0  0  0
  128.3523  127.6338  127.7143 H   0  0  0  0  0  0  0  0  0  0  0  0
  135.3308  124.9005  124.7327 H   0  0  0  0  0  0  0  0  0  0  0  0
  135.4587  124.3337  127.1589 H   0  0  0  0  0  0  0  0  0  0  0  0
  1  2  1  0
  2  3  1  0
  3  4  2  0
  4  5  1  0
  5  6  1  0
  6  7  1  0
  7  8  1  0
  8  9  1  0
  9 10  1  0
 10 11  1  0
 11 12  1  0
 12 13  1  0
 13 14  1  0
 14 15  1  0
 15 16  2  0
 16 17  1  0
 17 18  2  0
 18 19  1  0
 18 20  1  0
 20 21  1  0
 21 22  1  0
  5 23  2  0
 23 24  1  0
 24  2  2  0
 11  6  1  0
 19 14  2  0
 22 17  1  0
  3 25  1  0
  4 26  1  0
  6 27  1  6
  7 28  1  0
  7 29  1  0
  8 30  1  0
  8 31  1  0
  9 32  1  0
  9 33  1  0
 10 34  1  0
 10 35  1  0
 11 36  1  1
 12 37  1  0
 12 38  1  0
 15 39  1  0
 16 40  1  0
 19 41  1  0
 21 42  1  0
 21 43  1  0
 23 44  1  0
 24 45  1  0
M  CHG  1   9   1
M  END
>  <meeko>  (4) 
{"is_sidechain": [false], "free_energy": -9.257, "intermolecular_energy": -11.447, "internal_energy": -1.089}

$$$$
seed-2402
     RDKit          3D

 45 48  0  0  0  0  0  0  0  0999 V2000
  134.3970  121.1900  126.4780 F   0  0  0  0  0  0  0  0  0  0  0  0
  133.5780  122.2490  126.4660 C   0  0  0  0  0  0  0  0  0  0  0  0
  134.1120  123.5280  126.5150 C   0  0  0  0  0  0  0  0  0  0  0  0
  133.2600  124.6340  126.5080 C   0  0  0  0  0  0  0  0  0  0  0  0
  131.8650  124.4630  126.4530 C   0  0  0  0  0  0  0  0  0  0  0  0
  130.9120  125.6470  126.4430 C   0  0  2  0  0  0  0  0  0  0  0  0
  129.8580  125.4460  127.5530 C   0  0  0  0  0  0  0  0  0  0  0  0
  128.8740  126.5980  127.6170 C   0  0  0  0  0  0  0  0  0  0  0  0
  128.2440  126.7640  126.2770 N   0  0  0  0  0  0  0  0  0  0  0  0
  129.2210  127.0610  125.1910 C   0  0  0  0  0  0  0  0  0  0  0  0
  130.2400  125.9250  125.0660 C   0  0  1  0  0  0  0  0  0  0  0  0
  131.2510  126.3240  123.9670 C   0  0  0  0  0  0  0  0  0  0  0  0
  131.3220  125.3740  122.9130 O   0  0  0  0  0  0  0  0  0  0  0  0
  132.5450  124.9380  122.4850 C   0  0  0  0  0  0  0  0  0  0  0  0
  133.0070  123.7810  123.1460 C   0  0  0  0  0  0  0  0  0  0  0  0
  134.2320  123.1950  122.8140 C   0  0  0  0  0  0  0  0  0  0  0  0
  134.9720  123.7930  121.8200 C   0  0  0  0  0  0  0  0  0  0  0  0
  134.5300  124.9240  121.1770 C   0  0  0  0  0  0  0  0  0  0  0  0
  133.3250  125.5240  121.4860 C   0  0  0  0  0  0  0  0  0  0  0  0
  135.4040  125.3550  120.2270 O   0  0  0  0  0  0  0  0  0  0  0  0
  136.4670  124.3860  120.3760 C   0  0  0  0  0  0  0  0  0  0  0  0
  136.1790  123.3720  121.3600 O   0  0  0  0  0  0  0  0  0  0  0  0
  131.3490  123.1560  126.4000 C   0  0  0  0  0  0  0  0  0  0  0  0
  132.2050  122.0530  126.4080 C   0  0  0  0  0  0  0  0  0  0  0  0
  135.2018  123.6704  126.5592 H   0  0  0  0  0  0  0  0  0  0  0  0
  133.6836  125.6485  126.5459 H   0  0  0  0  0  0  0  0  0  0  0  0
  131.5126  126.5476  126.6386 H   0  0  0  0  0  0  0  0  0  0  0  0
  129.3044  124.5167  127.3531 H   0  0  0  0  0  0  0  0  0  0  0  0
  130.3852  125.3954  128.5171 H   0  0  0  0  0  0  0  0  0  0  0  0
  128.0984  126.3809  128.3662 H   0  0  0  0  0  0  0  0  0  0  0  0
  129.3977  127.5225  127.9017 H   0  0  0  0  0  0  0  0  0  0  0  0
  127.7020  125.9200  126.0420 H   0  0  0  0  0  0  0  0  0  0  0  0
  127.5520  127.5250  126.3270 H   0  0  0  0  0  0  0  0  0  0  0  0
  128.6820  127.1711  124.2384 H   0  0  0  0  0  0  0  0  0  0  0  0
  129.7527  127.9929  125.4337 H   0  0  0  0  0  0  0  0  0  0  0  0
  129.7573  124.9810  124.7731 H   0  0  0  0  0  0  0  0  0  0  0  0
  130.9479  127.2940  123.5460 H   0  0  0  0  0  0  0  0  0  0  0  0
  132.2454  126.3749  124.4345 H   0  0  0  0  0  0  0  0  0  0  0  0
  132.3912  123.3308  123.9385 H   0  0  0  0  0  0  0  0  0  0  0  0
  134.5905  122.2907  123.3276 H   0  0  0  0  0  0  0  0  0  0  0  0
  132.9912  126.4323  120.9631 H   0  0  0  0  0  0  0  0  0  0  0  0
  136.6304  123.8947  119.4055 H   0  0  0  0  0  0  0  0  0  0  0  0
  137.3590  124.9303  120.7197 H   0  0  0  0  0  0  0  0  0  0  0  0
  130.2610  123.0012  126.3518 H   0  0  0  0  0  0  0  0  0  0  0  0
  131.7934  121.0337  126.3685 H   0  0  0  0  0  0  0  0  0  0  0  0
  1  2  1  0
  2  3  1  0
  3  4  2  0
  4  5  1  0
  5  6  1  0
  6  7  1  0
  7  8  1  0
  8  9  1  0
  9 10  1  0
 10 11  1  0
 11 12  1  0
 12 13  1  0
 13 14  1  0
 14 15  1  0
 15 16  2  0
 16 17  1  0
 17 18  2  0
 18 19  1  0
 18 20  1  0
 20 21  1  0
 21 22  1  0
  5 23  2  0
 23 24  1  0
 24  2  2  0
 11  6  1  0
 19 14  2  0
 22 17  1  0
  3 25  1  0
  4 26  1  0
  6 27  1  1
  7 28  1  0
  7 29  1  0
  8 30  1  0
  8 31  1  0
  9 32  1  0
  9 33  1  0
 10 34  1  0
 10 35  1  0
 11 36  1  6
 12 37  1  0
 12 38  1  0
 15 39  1  0
 16 40  1  0
 19 41  1  0
 21 42  1  0
 21 43  1  0
 23 44  1  0
 24 45  1  0
M  CHG  1   9   1
M  END
>  <meeko>  (5) 
{"is_sidechain": [false], "free_energy": -9.216, "intermolecular_energy": -11.075, "internal_energy": -1.41}

$$$$
seed-2402
     RDKit          3D

 45 48  0  0  0  0  0  0  0  0999 V2000
  136.5610  121.3110  127.2380 F   0  0  0  0  0  0  0  0  0  0  0  0
  136.1300  121.8110  126.0730 C   0  0  0  0  0  0  0  0  0  0  0  0
  136.5680  123.0620  125.6610 C   0  0  0  0  0  0  0  0  0  0  0  0
  136.1160  123.5880  124.4490 C   0  0  0  0  0  0  0  0  0  0  0  0
  135.2200  122.8620  123.6430 C   0  0  0  0  0  0  0  0  0  0  0  0
  134.7120  123.4070  122.3180 C   0  0  2  0  0  0  0  0  0  0  0  0
  135.9170  123.6370  121.3810 C   0  0  0  0  0  0  0  0  0  0  0  0
  135.4900  124.1690  120.0260 C   0  0  0  0  0  0  0  0  0  0  0  0
  134.6980  125.4150  120.2300 N   0  0  0  0  0  0  0  0  0  0  0  0
  133.4680  125.2140  121.0480 C   0  0  0  0  0  0  0  0  0  0  0  0
  133.8340  124.6870  122.4380 C   0  0  1  0  0  0  0  0  0  0  0  0
  132.5140  124.4470  123.2080 C   0  0  0  0  0  0  0  0  0  0  0  0
  131.5540  125.4710  122.9860 O   0  0  0  0  0  0  0  0  0  0  0  0
  131.1450  126.2450  124.0360 C   0  0  0  0  0  0  0  0  0  0  0  0
  130.0230  127.0500  123.7540 C   0  0  0  0  0  0  0  0  0  0  0  0
  129.4670  127.8880  124.7250 C   0  0  0  0  0  0  0  0  0  0  0  0
  130.0590  127.8990  125.9670 C   0  0  0  0  0  0  0  0  0  0  0  0
  131.1570  127.1210  126.2460 C   0  0  0  0  0  0  0  0  0  0  0  0
  131.7270  126.2860  125.3040 C   0  0  0  0  0  0  0  0  0  0  0  0
  131.5890  127.2740  127.5280 O   0  0  0  0  0  0  0  0  0  0  0  0
  130.6580  128.2700  128.0100 C   0  0  0  0  0  0  0  0  0  0  0  0
  129.6640  128.6410  127.0330 O   0  0  0  0  0  0  0  0  0  0  0  0
  134.7950  121.5950  124.0810 C   0  0  0  0  0  0  0  0  0  0  0  0
  135.2500  121.0740  125.2940 C   0  0  0  0  0  0  0  0  0  0  0  0
  137.2677  123.6362  126.2861 H   0  0  0  0  0  0  0  0  0  0  0  0
  136.4636  124.5789  124.1215 H   0  0  0  0  0  0  0  0  0  0  0  0
  134.0327  122.6514  121.8965 H   0  0  0  0  0  0  0  0  0  0  0  0
  136.5975  124.3634  121.8493 H   0  0  0  0  0  0  0  0  0  0  0  0
  136.4151  122.6688  121.2242 H   0  0  0  0  0  0  0  0  0  0  0  0
  136.3797  124.3912  119.4184 H   0  0  0  0  0  0  0  0  0  0  0  0
  134.8792  123.4178  119.5039 H   0  0  0  0  0  0  0  0  0  0  0  0
  135.2940  126.1380  120.6610 H   0  0  0  0  0  0  0  0  0  0  0  0
  134.4350  125.7950  119.3100 H   0  0  0  0  0  0  0  0  0  0  0  0
  132.9401  126.1735  121.1512 H   0  0  0  0  0  0  0  0  0  0  0  0
  132.8208  124.4797  120.5461 H   0  0  0  0  0  0  0  0  0  0  0  0
  134.4408  125.4141  122.9976 H   0  0  0  0  0  0  0  0  0  0  0  0
  132.0863  123.4874  122.8821 H   0  0  0  0  0  0  0  0  0  0  0  0
  132.7525  124.4432  124.2818 H   0  0  0  0  0  0  0  0  0  0  0  0
  129.5758  127.0182  122.7495 H   0  0  0  0  0  0  0  0  0  0  0  0
  128.5901  128.5144  124.5046 H   0  0  0  0  0  0  0  0  0  0  0  0
  132.6091  125.6746  125.5451 H   0  0  0  0  0  0  0  0  0  0  0  0
  130.1442  127.8682  128.8958 H   0  0  0  0  0  0  0  0  0  0  0  0
  131.2395  129.1742  128.2431 H   0  0  0  0  0  0  0  0  0  0  0  0
  134.0984  121.0096  123.4629 H   0  0  0  0  0  0  0  0  0  0  0  0
  134.9119  120.0828  125.6306 H   0  0  0  0  0  0  0  0  0  0  0  0
  1  2  1  0
  2  3  1  0
  3  4  2  0
  4  5  1  0
  5  6  1  0
  6  7  1  0
  7  8  1  0
  8  9  1  0
  9 10  1  0
 10 11  1  0
 11 12  1  0
 12 13  1  0
 13 14  1  0
 14 15  1  0
 15 16  2  0
 16 17  1  0
 17 18  2  0
 18 19  1  0
 18 20  1  0
 20 21  1  0
 21 22  1  0
  5 23  2  0
 23 24  1  0
 24  2  2  0
 11  6  1  0
 19 14  2  0
 22 17  1  0
  3 25  1  0
  4 26  1  0
  6 27  1  6
  7 28  1  0
  7 29  1  0
  8 30  1  0
  8 31  1  0
  9 32  1  0
  9 33  1  0
 10 34  1  0
 10 35  1  0
 11 36  1  1
 12 37  1  0
 12 38  1  0
 15 39  1  0
 16 40  1  0
 19 41  1  0
 21 42  1  0
 21 43  1  0
 23 44  1  0
 24 45  1  0
M  CHG  1   9   1
M  END
>  <meeko>  (6) 
{"is_sidechain": [false], "free_energy": -9.062, "intermolecular_energy": -11.495, "internal_energy": -0.8}

$$$$
seed-2402
     RDKit          3D

 45 48  0  0  0  0  0  0  0  0999 V2000
  134.5160  125.5570  118.5880 F   0  0  0  0  0  0  0  0  0  0  0  0
  134.6390  125.0760  119.8320 C   0  0  0  0  0  0  0  0  0  0  0  0
  135.2030  123.8240  120.0280 C   0  0  0  0  0  0  0  0  0  0  0  0
  135.3280  123.3180  121.3240 C   0  0  0  0  0  0  0  0  0  0  0  0
  134.8860  124.0650  122.4310 C   0  0  0  0  0  0  0  0  0  0  0  0
  135.0100  123.5420  123.8520 C   0  0  2  0  0  0  0  0  0  0  0  0
  136.2570  122.6350  123.9410 C   0  0  0  0  0  0  0  0  0  0  0  0
  136.4590  122.0830  125.3390 C   0  0  0  0  0  0  0  0  0  0  0  0
  135.2190  121.3670  125.7540 N   0  0  0  0  0  0  0  0  0  0  0  0
  134.0080  122.2360  125.7800 C   0  0  0  0  0  0  0  0  0  0  0  0
  133.7410  122.8170  124.3890 C   0  0  1  0  0  0  0  0  0  0  0  0
  132.5120  123.7490  124.5010 C   0  0  0  0  0  0  0  0  0  0  0  0
  132.5800  124.6160  125.6240 O   0  0  0  0  0  0  0  0  0  0  0  0
  131.4680  124.7980  126.3990 C   0  0  0  0  0  0  0  0  0  0  0  0
  131.2490  126.1360  126.7860 C   0  0  0  0  0  0  0  0  0  0  0  0
  130.1460  126.4960  127.5650 C   0  0  0  0  0  0  0  0  0  0  0  0
  129.2840  125.4930  127.9440 C   0  0  0  0  0  0  0  0  0  0  0  0
  129.4950  124.1860  127.5760 C   0  0  0  0  0  0  0  0  0  0  0  0
  130.5780  123.8030  126.8080 C   0  0  0  0  0  0  0  0  0  0  0  0
  128.5300  123.3510  128.0480 O   0  0  0  0  0  0  0  0  0  0  0  0
  127.7070  124.2800  128.7900 C   0  0  0  0  0  0  0  0  0  0  0  0
  128.1620  125.6450  128.6950 O   0  0  0  0  0  0  0  0  0  0  0  0
  134.3230  125.3330  122.2040 C   0  0  0  0  0  0  0  0  0  0  0  0
  134.1990  125.8350  120.9070 C   0  0  0  0  0  0  0  0  0  0  0  0
  135.5499  123.2329  119.1676 H   0  0  0  0  0  0  0  0  0  0  0  0
  135.7764  122.3258  121.4804 H   0  0  0  0  0  0  0  0  0  0  0  0
  135.1202  124.4168  124.5097 H   0  0  0  0  0  0  0  0  0  0  0  0
  136.1358  121.7948  123.2415 H   0  0  0  0  0  0  0  0  0  0  0  0
  137.1378  123.2420  123.6847 H   0  0  0  0  0  0  0  0  0  0  0  0
  137.3085  121.3842  125.3418 H   0  0  0  0  0  0  0  0  0  0  0  0
  136.6696  122.9045  126.0395 H   0  0  0  0  0  0  0  0  0  0  0  0
  135.0610  120.5590  125.1330 H   0  0  0  0  0  0  0  0  0  0  0  0
  135.3670  120.9640  126.6900 H   0  0  0  0  0  0  0  0  0  0  0  0
  133.1399  121.6393  126.0968 H   0  0  0  0  0  0  0  0  0  0  0  0
  134.1755  123.0621  126.4867 H   0  0  0  0  0  0  0  0  0  0  0  0
  133.5173  122.0258  123.6583 H   0  0  0  0  0  0  0  0  0  0  0  0
  132.4498  124.3600  123.5884 H   0  0  0  0  0  0  0  0  0  0  0  0
  131.6237  123.1125  124.6269 H   0  0  0  0  0  0  0  0  0  0  0  0
  131.9607  126.9122  126.4683 H   0  0  0  0  0  0  0  0  0  0  0  0
  129.9737  127.5406  127.8635 H   0  0  0  0  0  0  0  0  0  0  0  0
  130.7336  122.7505  126.5285 H   0  0  0  0  0  0  0  0  0  0  0  0
  126.6801  124.2261  128.3994 H   0  0  0  0  0  0  0  0  0  0  0  0
  127.7624  123.9906  129.8498 H   0  0  0  0  0  0  0  0  0  0  0  0
  133.9767  125.9356  123.0566 H   0  0  0  0  0  0  0  0  0  0  0  0
  133.7548  126.8271  120.7383 H   0  0  0  0  0  0  0  0  0  0  0  0
  1  2  1  0
  2  3  1  0
  3  4  2  0
  4  5  1  0
  5  6  1  0
  6  7  1  0
  7  8  1  0
  8  9  1  0
  9 10  1  0
 10 11  1  0
 11 12  1  0
 12 13  1  0
 13 14  1  0
 14 15  1  0
 15 16  2  0
 16 17  1  0
 17 18  2  0
 18 19  1  0
 18 20  1  0
 20 21  1  0
 21 22  1  0
  5 23  2  0
 23 24  1  0
 24  2  2  0
 11  6  1  0
 19 14  2  0
 22 17  1  0
  3 25  1  0
  4 26  1  0
  6 27  1  1
  7 28  1  0
  7 29  1  0
  8 30  1  0
  8 31  1  0
  9 32  1  0
  9 33  1  0
 10 34  1  0
 10 35  1  0
 11 36  1  6
 12 37  1  0
 12 38  1  0
 15 39  1  0
 16 40  1  0
 19 41  1  0
 21 42  1  0
 21 43  1  0
 23 44  1  0
 24 45  1  0
M  CHG  1   9   1
M  END
>  <meeko>  (7) 
{"is_sidechain": [false], "free_energy": -9.059, "intermolecular_energy": -11.732, "internal_energy": -0.56}

$$$$
seed-2402
     RDKit          3D

 45 48  0  0  0  0  0  0  0  0999 V2000
  135.0010  121.0240  116.2710 F   0  0  0  0  0  0  0  0  0  0  0  0
  134.9600  121.8470  117.3270 C   0  0  0  0  0  0  0  0  0  0  0  0
  134.6230  123.1800  117.1420 C   0  0  0  0  0  0  0  0  0  0  0  0
  134.5840  124.0420  118.2400 C   0  0  0  0  0  0  0  0  0  0  0  0
  134.8840  123.5700  119.5310 C   0  0  0  0  0  0  0  0  0  0  0  0
  134.8480  124.4830  120.7460 C   0  0  2  0  0  0  0  0  0  0  0  0
  134.3610  125.8800  120.3030 C   0  0  0  0  0  0  0  0  0  0  0  0
  134.2840  126.8490  121.4670 C   0  0  0  0  0  0  0  0  0  0  0  0
  135.6170  126.9090  122.1290 N   0  0  0  0  0  0  0  0  0  0  0  0
  136.0790  125.5960  122.6620 C   0  0  0  0  0  0  0  0  0  0  0  0
  136.1910  124.5720  121.5290 C   0  0  1  0  0  0  0  0  0  0  0  0
  136.6160  123.2250  122.1580 C   0  0  0  0  0  0  0  0  0  0  0  0
  136.7780  123.3030  123.5680 O   0  0  0  0  0  0  0  0  0  0  0  0
  135.8250  122.7590  124.3830 C   0  0  0  0  0  0  0  0  0  0  0  0
  136.2880  121.6900  125.1770 C   0  0  0  0  0  0  0  0  0  0  0  0
  135.4450  121.0350  126.0790 C   0  0  0  0  0  0  0  0  0  0  0  0
  134.1420  121.4710  126.1590 C   0  0  0  0  0  0  0  0  0  0  0  0
  133.6830  122.5080  125.3840 C   0  0  0  0  0  0  0  0  0  0  0  0
  134.4950  123.1710  124.4840 C   0  0  0  0  0  0  0  0  0  0  0  0
  132.3710  122.7860  125.6150 O   0  0  0  0  0  0  0  0  0  0  0  0
  132.0480  121.7760  126.5980 C   0  0  0  0  0  0  0  0  0  0  0  0
  133.1800  120.9640  126.9720 O   0  0  0  0  0  0  0  0  0  0  0  0
  135.2170  122.2140  119.6920 C   0  0  0  0  0  0  0  0  0  0  0  0
  135.2560  121.3560  118.5900 C   0  0  0  0  0  0  0  0  0  0  0  0
  134.3877  123.5561  116.1354 H   0  0  0  0  0  0  0  0  0  0  0  0
  134.3165  125.0990  118.0943 H   0  0  0  0  0  0  0  0  0  0  0  0
  134.1444  124.0378  121.4649 H   0  0  0  0  0  0  0  0  0  0  0  0
  135.0607  126.2792  119.5540 H   0  0  0  0  0  0  0  0  0  0  0  0
  133.3499  125.7707  119.8837 H   0  0  0  0  0  0  0  0  0  0  0  0
  134.0085  127.8483  121.0989 H   0  0  0  0  0  0  0  0  0  0  0  0
  133.5238  126.5103  122.1863 H   0  0  0  0  0  0  0  0  0  0  0  0
  136.3140  127.2880  121.4700 H   0  0  0  0  0  0  0  0  0  0  0  0
  135.5750  127.5920  122.8990 H   0  0  0  0  0  0  0  0  0  0  0  0
  137.0639  125.7228  123.1352 H   0  0  0  0  0  0  0  0  0  0  0  0
  135.3496  125.2333  123.4012 H   0  0  0  0  0  0  0  0  0  0  0  0
  136.9494  124.8700  120.7900 H   0  0  0  0  0  0  0  0  0  0  0  0
  135.8448  122.4734  121.9338 H   0  0  0  0  0  0  0  0  0  0  0  0
  137.5902  122.9506  121.7271 H   0  0  0  0  0  0  0  0  0  0  0  0
  137.3347  121.3646  125.0846 H   0  0  0  0  0  0  0  0  0  0  0  0
  135.8087  120.2036  126.7007 H   0  0  0  0  0  0  0  0  0  0  0  0
  134.1067  123.9955  123.8680 H   0  0  0  0  0  0  0  0  0  0  0  0
  131.6633  122.2758  127.4993 H   0  0  0  0  0  0  0  0  0  0  0  0
  131.3012  121.1069  126.1457 H   0  0  0  0  0  0  0  0  0  0  0  0
  135.4489  121.8249  120.6944 H   0  0  0  0  0  0  0  0  0  0  0  0
  135.5201  120.2965  118.7233 H   0  0  0  0  0  0  0  0  0  0  0  0
  1  2  1  0
  2  3  1  0
  3  4  2  0
  4  5  1  0
  5  6  1  0
  6  7  1  0
  7  8  1  0
  8  9  1  0
  9 10  1  0
 10 11  1  0
 11 12  1  0
 12 13  1  0
 13 14  1  0
 14 15  1  0
 15 16  2  0
 16 17  1  0
 17 18  2  0
 18 19  1  0
 18 20  1  0
 20 21  1  0
 21 22  1  0
  5 23  2  0
 23 24  1  0
 24  2  2  0
 11  6  1  0
 19 14  2  0
 22 17  1  0
  3 25  1  0
  4 26  1  0
  6 27  1  1
  7 28  1  0
  7 29  1  0
  8 30  1  0
  8 31  1  0
  9 32  1  0
  9 33  1  0
 10 34  1  0
 10 35  1  0
 11 36  1  6
 12 37  1  0
 12 38  1  0
 15 39  1  0
 16 40  1  0
 19 41  1  0
 21 42  1  0
 21 43  1  0
 23 44  1  0
 24 45  1  0
M  CHG  1   9   1
M  END
>  <meeko>  (8) 
{"is_sidechain": [false], "free_energy": -9.043, "intermolecular_energy": -12.195, "internal_energy": -0.077}

$$$$
seed-2402
     RDKit          3D

 45 48  0  0  0  0  0  0  0  0999 V2000
  134.9170  123.7220  117.7590 F   0  0  0  0  0  0  0  0  0  0  0  0
  134.9850  124.0670  119.0510 C   0  0  0  0  0  0  0  0  0  0  0  0
  135.7570  123.3110  119.9210 C   0  0  0  0  0  0  0  0  0  0  0  0
  135.8260  123.6660  121.2700 C   0  0  0  0  0  0  0  0  0  0  0  0
  135.1200  124.7820  121.7540 C   0  0  0  0  0  0  0  0  0  0  0  0
  135.1770  125.1940  123.2160 C   0  0  2  0  0  0  0  0  0  0  0  0
  136.4590  126.0220  123.4490 C   0  0  0  0  0  0  0  0  0  0  0  0
  136.5820  126.4850  124.8880 C   0  0  0  0  0  0  0  0  0  0  0  0
  136.5180  125.2940  125.7810 N   0  0  0  0  0  0  0  0  0  0  0  0
  135.2490  124.5240  125.6590 C   0  0  0  0  0  0  0  0  0  0  0  0
  135.0700  124.0140  124.2270 C   0  0  1  0  0  0  0  0  0  0  0  0
  133.7120  123.2780  124.1580 C   0  0  0  0  0  0  0  0  0  0  0  0
  132.6260  124.1530  123.8910 O   0  0  0  0  0  0  0  0  0  0  0  0
  131.9150  124.6770  124.9360 C   0  0  0  0  0  0  0  0  0  0  0  0
  131.2300  123.7150  125.7060 C   0  0  0  0  0  0  0  0  0  0  0  0
  130.4710  124.0820  126.8210 C   0  0  0  0  0  0  0  0  0  0  0  0
  130.4150  125.4200  127.1360 C   0  0  0  0  0  0  0  0  0  0  0  0
  131.0750  126.3630  126.3860 C   0  0  0  0  0  0  0  0  0  0  0  0
  131.8300  126.0280  125.2790 C   0  0  0  0  0  0  0  0  0  0  0  0
  130.8950  127.6250  126.8630 O   0  0  0  0  0  0  0  0  0  0  0  0
  130.0110  127.3680  127.9790 C   0  0  0  0  0  0  0  0  0  0  0  0
  129.7350  125.9670  128.1770 O   0  0  0  0  0  0  0  0  0  0  0  0
  134.3490  125.5340  120.8500 C   0  0  0  0  0  0  0  0  0  0  0  0
  134.2820  125.1750  119.5030 C   0  0  0  0  0  0  0  0  0  0  0  0
  136.3119  122.4365  119.5503 H   0  0  0  0  0  0  0  0  0  0  0  0
  136.4382  123.0672  121.9604 H   0  0  0  0  0  0  0  0  0  0  0  0
  134.2824  125.8021  123.4159 H   0  0  0  0  0  0  0  0  0  0  0  0
  137.3326  125.4019  123.1994 H   0  0  0  0  0  0  0  0  0  0  0  0
  136.4086  126.9144  122.8078 H   0  0  0  0  0  0  0  0  0  0  0  0
  137.5424  127.0023  125.0294 H   0  0  0  0  0  0  0  0  0  0  0  0
  135.7630  127.1785  125.1295 H   0  0  0  0  0  0  0  0  0  0  0  0
  137.3240  124.6780  125.5960 H   0  0  0  0  0  0  0  0  0  0  0  0
  136.6340  125.6040  126.7570 H   0  0  0  0  0  0  0  0  0  0  0  0
  135.2773  123.6671  126.3481 H   0  0  0  0  0  0  0  0  0  0  0  0
  134.4056  125.1838  125.9109 H   0  0  0  0  0  0  0  0  0  0  0  0
  135.8660  123.3075  123.9491 H   0  0  0  0  0  0  0  0  0  0  0  0
  133.7609  122.5240  123.3585 H   0  0  0  0  0  0  0  0  0  0  0  0
  133.5336  122.8183  125.1413 H   0  0  0  0  0  0  0  0  0  0  0  0
  131.2941  122.6538  125.4236 H   0  0  0  0  0  0  0  0  0  0  0  0
  129.9393  123.3304  127.4230 H   0  0  0  0  0  0  0  0  0  0  0  0
  132.3465  126.7987  124.6880 H   0  0  0  0  0  0  0  0  0  0  0  0
  130.4779  127.7644  128.8927 H   0  0  0  0  0  0  0  0  0  0  0  0
  129.0530  127.8604  127.7559 H   0  0  0  0  0  0  0  0  0  0  0  0
  133.7935  126.4134  121.2078 H   0  0  0  0  0  0  0  0  0  0  0  0
  133.6748  125.7675  118.8028 H   0  0  0  0  0  0  0  0  0  0  0  0
  1  2  1  0
  2  3  1  0
  3  4  2  0
  4  5  1  0
  5  6  1  0
  6  7  1  0
  7  8  1  0
  8  9  1  0
  9 10  1  0
 10 11  1  0
 11 12  1  0
 12 13  1  0
 13 14  1  0
 14 15  1  0
 15 16  2  0
 16 17  1  0
 17 18  2  0
 18 19  1  0
 18 20  1  0
 20 21  1  0
 21 22  1  0
  5 23  2  0
 23 24  1  0
 24  2  2  0
 11  6  1  0
 19 14  2  0
 22 17  1  0
  3 25  1  0
  4 26  1  0
  6 27  1  1
  7 28  1  0
  7 29  1  0
  8 30  1  0
  8 31  1  0
  9 32  1  0
  9 33  1  0
 10 34  1  0
 10 35  1  0
 11 36  1  6
 12 37  1  0
 12 38  1  0
 15 39  1  0
 16 40  1  0
 19 41  1  0
 21 42  1  0
 21 43  1  0
 23 44  1  0
 24 45  1  0
M  CHG  1   9   1
M  END
>  <meeko>  (9) 
{"is_sidechain": [false], "free_energy": -8.937, "intermolecular_energy": -11.282, "internal_energy": -0.859}

$$$$
seed-2402
     RDKit          3D

 45 48  0  0  0  0  0  0  0  0999 V2000
  137.0060  120.6750  127.3060 F   0  0  0  0  0  0  0  0  0  0  0  0
  136.2770  121.5840  126.6470 C   0  0  0  0  0  0  0  0  0  0  0  0
  136.4930  121.7800  125.2910 C   0  0  0  0  0  0  0  0  0  0  0  0
  135.7380  122.7310  124.6010 C   0  0  0  0  0  0  0  0  0  0  0  0
  134.7610  123.4910  125.2690 C   0  0  0  0  0  0  0  0  0  0  0  0
  133.9220  124.5310  124.5460 C   0  0  2  0  0  0  0  0  0  0  0  0
  132.5560  124.6490  125.2560 C   0  0  0  0  0  0  0  0  0  0  0  0
  131.6620  125.6830  124.5990 C   0  0  0  0  0  0  0  0  0  0  0  0
  131.5110  125.3390  123.1570 N   0  0  0  0  0  0  0  0  0  0  0  0
  132.8010  125.3150  122.4110 C   0  0  0  0  0  0  0  0  0  0  0  0
  133.7490  124.2770  123.0190 C   0  0  1  0  0  0  0  0  0  0  0  0
  135.0810  124.3460  122.2370 C   0  0  0  0  0  0  0  0  0  0  0  0
  134.9350  124.9410  120.9550 O   0  0  0  0  0  0  0  0  0  0  0  0
  134.9050  124.1430  119.8460 C   0  0  0  0  0  0  0  0  0  0  0  0
  134.4420  124.7920  118.6830 C   0  0  0  0  0  0  0  0  0  0  0  0
  134.3660  124.1230  117.4580 C   0  0  0  0  0  0  0  0  0  0  0  0
  134.7570  122.8040  117.4310 C   0  0  0  0  0  0  0  0  0  0  0  0
  135.2030  122.1640  118.5620 C   0  0  0  0  0  0  0  0  0  0  0  0
  135.2860  122.8020  119.7850 C   0  0  0  0  0  0  0  0  0  0  0  0
  135.5430  120.8680  118.3250 O   0  0  0  0  0  0  0  0  0  0  0  0
  135.2210  120.7560  116.9200 C   0  0  0  0  0  0  0  0  0  0  0  0
  134.7570  121.9930  116.3420 O   0  0  0  0  0  0  0  0  0  0  0  0
  134.5590  123.2690  126.6430 C   0  0  0  0  0  0  0  0  0  0  0  0
  135.3170  122.3180  127.3280 C   0  0  0  0  0  0  0  0  0  0  0  0
  137.2552  121.1893  124.7617 H   0  0  0  0  0  0  0  0  0  0  0  0
  135.9089  122.8870  123.5256 H   0  0  0  0  0  0  0  0  0  0  0  0
  134.4697  125.4833  124.6011 H   0  0  0  0  0  0  0  0  0  0  0  0
  132.0526  123.6715  125.2224 H   0  0  0  0  0  0  0  0  0  0  0  0
  132.7383  124.9671  126.2931 H   0  0  0  0  0  0  0  0  0  0  0  0
  130.6752  125.6811  125.0850 H   0  0  0  0  0  0  0  0  0  0  0  0
  132.1092  126.6829  124.7003 H   0  0  0  0  0  0  0  0  0  0  0  0
  131.0340  124.4300  123.0660 H   0  0  0  0  0  0  0  0  0  0  0  0
  130.8780  126.0220  122.7170 H   0  0  0  0  0  0  0  0  0  0  0  0
  132.6070  125.0570  121.3594 H   0  0  0  0  0  0  0  0  0  0  0  0
  133.2696  126.3081  122.4758 H   0  0  0  0  0  0  0  0  0  0  0  0
  133.3424  123.2588  122.9298 H   0  0  0  0  0  0  0  0  0  0  0  0
  135.8009  124.9391  122.8201 H   0  0  0  0  0  0  0  0  0  0  0  0
  135.4310  123.3142  122.0860 H   0  0  0  0  0  0  0  0  0  0  0  0
  134.1343  125.8465  118.7409 H   0  0  0  0  0  0  0  0  0  0  0  0
  134.0075  124.6313  116.5507 H   0  0  0  0  0  0  0  0  0  0  0  0
  135.6405  122.2705  120.6805 H   0  0  0  0  0  0  0  0  0  0  0  0
  136.1234  120.4345  116.3793 H   0  0  0  0  0  0  0  0  0  0  0  0
  134.4027  120.0265  116.8299 H   0  0  0  0  0  0  0  0  0  0  0  0
  133.7967  123.8501  127.1827 H   0  0  0  0  0  0  0  0  0  0  0  0
  135.1538  122.1514  128.4030 H   0  0  0  0  0  0  0  0  0  0  0  0
  1  2  1  0
  2  3  1  0
  3  4  2  0
  4  5  1  0
  5  6  1  0
  6  7  1  0
  7  8  1  0
  8  9  1  0
  9 10  1  0
 10 11  1  0
 11 12  1  0
 12 13  1  0
 13 14  1  0
 14 15  1  0
 15 16  2  0
 16 17  1  0
 17 18  2  0
 18 19  1  0
 18 20  1  0
 20 21  1  0
 21 22  1  0
  5 23  2  0
 23 24  1  0
 24  2  2  0
 11  6  1  0
 19 14  2  0
 22 17  1  0
  3 25  1  0
  4 26  1  0
  6 27  1  6
  7 28  1  0
  7 29  1  0
  8 30  1  0
  8 31  1  0
  9 32  1  0
  9 33  1  0
 10 34  1  0
 10 35  1  0
 11 36  1  1
 12 37  1  0
 12 38  1  0
 15 39  1  0
 16 40  1  0
 19 41  1  0
 21 42  1  0
 21 43  1  0
 23 44  1  0
 24 45  1  0
M  CHG  1   9   1
M  END
>  <meeko>  (10) 
{"is_sidechain": [false], "free_energy": -8.89, "intermolecular_energy": -11.975, "internal_energy": -0.108}

$$$$
seed-2402
     RDKit          3D

 45 48  0  0  0  0  0  0  0  0999 V2000
  137.4130  126.0260  126.4200 F   0  0  0  0  0  0  0  0  0  0  0  0
  136.9120  125.5800  125.2610 C   0  0  0  0  0  0  0  0  0  0  0  0
  136.3930  124.2960  125.1900 C   0  0  0  0  0  0  0  0  0  0  0  0
  135.8740  123.8260  123.9820 C   0  0  0  0  0  0  0  0  0  0  0  0
  135.8740  124.6430  122.8360 C   0  0  0  0  0  0  0  0  0  0  0  0
  135.3160  124.1610  121.5080 C   0  0  2  0  0  0  0  0  0  0  0  0
  136.4250  123.4020  120.7480 C   0  0  0  0  0  0  0  0  0  0  0  0
  135.9400  122.8740  119.4120 C   0  0  0  0  0  0  0  0  0  0  0  0
  135.3980  124.0120  118.6160 N   0  0  0  0  0  0  0  0  0  0  0  0
  134.2560  124.7090  119.2710 C   0  0  0  0  0  0  0  0  0  0  0  0
  134.6850  125.2790  120.6260 C   0  0  1  0  0  0  0  0  0  0  0  0
  133.4430  125.9330  121.2720 C   0  0  0  0  0  0  0  0  0  0  0  0
  132.5320  124.9790  121.8010 O   0  0  0  0  0  0  0  0  0  0  0  0
  132.0990  125.1110  123.0920 C   0  0  0  0  0  0  0  0  0  0  0  0
  132.1680  123.9210  123.8460 C   0  0  0  0  0  0  0  0  0  0  0  0
  131.7800  123.8880  125.1880 C   0  0  0  0  0  0  0  0  0  0  0  0
  131.3230  125.0600  125.7450 C   0  0  0  0  0  0  0  0  0  0  0  0
  131.2470  126.2210  125.0140 C   0  0  0  0  0  0  0  0  0  0  0  0
  131.6220  126.2810  123.6850 C   0  0  0  0  0  0  0  0  0  0  0  0
  130.7730  127.2660  125.7460 O   0  0  0  0  0  0  0  0  0  0  0  0
  130.5230  126.6160  127.0140 C   0  0  0  0  0  0  0  0  0  0  0  0
  130.9060  125.2260  127.0270 O   0  0  0  0  0  0  0  0  0  0  0  0
  136.4020  125.9420  122.9360 C   0  0  0  0  0  0  0  0  0  0  0  0
  136.9210  126.4070  124.1470 C   0  0  0  0  0  0  0  0  0  0  0  0
  136.3902  123.6509  126.0810 H   0  0  0  0  0  0  0  0  0  0  0  0
  135.4613  122.8079  123.9255 H   0  0  0  0  0  0  0  0  0  0  0  0
  134.4751  123.4894  121.7357 H   0  0  0  0  0  0  0  0  0  0  0  0
  137.2685  124.0864  120.5742 H   0  0  0  0  0  0  0  0  0  0  0  0
  136.7299  122.5420  121.3624 H   0  0  0  0  0  0  0  0  0  0  0  0
  136.7780  122.4101  118.8712 H   0  0  0  0  0  0  0  0  0  0  0  0
  135.1549  122.1199  119.5699 H   0  0  0  0  0  0  0  0  0  0  0  0
  136.1540  124.6850  118.4150 H   0  0  0  0  0  0  0  0  0  0  0  0
  135.0990  123.6610  117.6960 H   0  0  0  0  0  0  0  0  0  0  0  0
  133.9135  125.5303  118.6243 H   0  0  0  0  0  0  0  0  0  0  0  0
  133.4409  123.9875  119.4292 H   0  0  0  0  0  0  0  0  0  0  0  0
  135.4655  126.0456  120.5116 H   0  0  0  0  0  0  0  0  0  0  0  0
  133.7764  126.5910  122.0880 H   0  0  0  0  0  0  0  0  0  0  0  0
  132.9166  126.4938  120.4856 H   0  0  0  0  0  0  0  0  0  0  0  0
  132.5346  123.0005  123.3681 H   0  0  0  0  0  0  0  0  0  0  0  0
  131.8378  122.9605  125.7765 H   0  0  0  0  0  0  0  0  0  0  0  0
  131.5471  127.2184  123.1144 H   0  0  0  0  0  0  0  0  0  0  0  0
  131.0920  127.1424  127.7945 H   0  0  0  0  0  0  0  0  0  0  0  0
  129.4385  126.6571  127.1932 H   0  0  0  0  0  0  0  0  0  0  0  0
  136.4066  126.5981  122.0531 H   0  0  0  0  0  0  0  0  0  0  0  0
  137.3348  127.4238  124.2169 H   0  0  0  0  0  0  0  0  0  0  0  0
  1  2  1  0
  2  3  1  0
  3  4  2  0
  4  5  1  0
  5  6  1  0
  6  7  1  0
  7  8  1  0
  8  9  1  0
  9 10  1  0
 10 11  1  0
 11 12  1  0
 12 13  1  0
 13 14  1  0
 14 15  1  0
 15 16  2  0
 16 17  1  0
 17 18  2  0
 18 19  1  0
 18 20  1  0
 20 21  1  0
 21 22  1  0
  5 23  2  0
 23 24  1  0
 24  2  2  0
 11  6  1  0
 19 14  2  0
 22 17  1  0
  3 25  1  0
  4 26  1  0
  6 27  1  1
  7 28  1  0
  7 29  1  0
  8 30  1  0
  8 31  1  0
  9 32  1  0
  9 33  1  0
 10 34  1  0
 10 35  1  0
 11 36  1  6
 12 37  1  0
 12 38  1  0
 15 39  1  0
 16 40  1  0
 19 41  1  0
 21 42  1  0
 21 43  1  0
 23 44  1  0
 24 45  1  0
M  CHG  1   9   1
M  END
>  <meeko>  (11) 
{"is_sidechain": [false], "free_energy": -8.836, "intermolecular_energy": -10.782, "internal_energy": -1.234}

$$$$
seed-2402
     RDKit          3D

 45 48  0  0  0  0  0  0  0  0999 V2000
  134.9490  123.6260  117.5110 F   0  0  0  0  0  0  0  0  0  0  0  0
  135.0550  124.0030  118.7920 C   0  0  0  0  0  0  0  0  0  0  0  0
  134.2310  125.0060  119.2800 C   0  0  0  0  0  0  0  0  0  0  0  0
  134.3430  125.4040  120.6140 C   0  0  0  0  0  0  0  0  0  0  0  0
  135.2840  124.7990  121.4650 C   0  0  0  0  0  0  0  0  0  0  0  0
  135.4290  125.2090  122.9210 C   0  0  2  0  0  0  0  0  0  0  0  0
  136.1330  126.5820  122.9830 C   0  0  0  0  0  0  0  0  0  0  0  0
  136.3030  127.0700  124.4080 C   0  0  0  0  0  0  0  0  0  0  0  0
  137.0380  126.0330  125.1850 N   0  0  0  0  0  0  0  0  0  0  0  0
  136.3400  124.7170  125.2360 C   0  0  0  0  0  0  0  0  0  0  0  0
  136.1480  124.1610  123.8220 C   0  0  1  0  0  0  0  0  0  0  0  0
  135.3700  122.8310  123.9440 C   0  0  0  0  0  0  0  0  0  0  0  0
  134.0140  122.9480  123.5350 O   0  0  0  0  0  0  0  0  0  0  0  0
  133.0340  123.0500  124.4840 C   0  0  0  0  0  0  0  0  0  0  0  0
  133.1760  122.1460  125.5560 C   0  0  0  0  0  0  0  0  0  0  0  0
  132.2680  122.1310  126.6190 C   0  0  0  0  0  0  0  0  0  0  0  0
  131.2280  123.0310  126.5760 C   0  0  0  0  0  0  0  0  0  0  0  0
  131.0810  123.9100  125.5310 C   0  0  0  0  0  0  0  0  0  0  0  0
  131.9620  123.9440  124.4680 C   0  0  0  0  0  0  0  0  0  0  0  0
  129.9940  124.7150  125.6790 O   0  0  0  0  0  0  0  0  0  0  0  0
  129.4510  124.2120  126.9220 C   0  0  0  0  0  0  0  0  0  0  0  0
  130.2530  123.1680  127.5120 O   0  0  0  0  0  0  0  0  0  0  0  0
  136.1050  123.7810  120.9470 C   0  0  0  0  0  0  0  0  0  0  0  0
  135.9890  123.3870  119.6120 C   0  0  0  0  0  0  0  0  0  0  0  0
  133.4932  125.4855  118.6200 H   0  0  0  0  0  0  0  0  0  0  0  0
  133.6887  126.1984  121.0023 H   0  0  0  0  0  0  0  0  0  0  0  0
  134.4142  125.2749  123.3404 H   0  0  0  0  0  0  0  0  0  0  0  0
  137.1256  126.4933  122.5173 H   0  0  0  0  0  0  0  0  0  0  0  0
  135.5055  127.3097  122.4476 H   0  0  0  0  0  0  0  0  0  0  0  0
  136.8751  128.0095  124.4115 H   0  0  0  0  0  0  0  0  0  0  0  0
  135.3173  127.2493  124.8622 H   0  0  0  0  0  0  0  0  0  0  0  0
  137.9850  125.9140  124.7950 H   0  0  0  0  0  0  0  0  0  0  0  0
  137.1830  126.3770  126.1450 H   0  0  0  0  0  0  0  0  0  0  0  0
  136.9421  124.0097  125.8252 H   0  0  0  0  0  0  0  0  0  0  0  0
  135.3536  124.8535  125.7034 H   0  0  0  0  0  0  0  0  0  0  0  0
  137.1133  123.9595  123.3346 H   0  0  0  0  0  0  0  0  0  0  0  0
  135.8634  122.0759  123.3143 H   0  0  0  0  0  0  0  0  0  0  0  0
  135.3726  122.5413  125.0052 H   0  0  0  0  0  0  0  0  0  0  0  0
  134.0180  121.4382  125.5563 H   0  0  0  0  0  0  0  0  0  0  0  0
  132.3806  121.4273  127.4569 H   0  0  0  0  0  0  0  0  0  0  0  0
  131.8237  124.6514  123.6371 H   0  0  0  0  0  0  0  0  0  0  0  0
  129.3823  125.0458  127.6362 H   0  0  0  0  0  0  0  0  0  0  0  0
  128.4655  123.7787  126.6962 H   0  0  0  0  0  0  0  0  0  0  0  0
  136.8440  123.2915  121.5983 H   0  0  0  0  0  0  0  0  0  0  0  0
  136.6355  122.5917  119.2126 H   0  0  0  0  0  0  0  0  0  0  0  0
  1  2  1  0
  2  3  1  0
  3  4  2  0
  4  5  1  0
  5  6  1  0
  6  7  1  0
  7  8  1  0
  8  9  1  0
  9 10  1  0
 10 11  1  0
 11 12  1  0
 12 13  1  0
 13 14  1  0
 14 15  1  0
 15 16  2  0
 16 17  1  0
 17 18  2  0
 18 19  1  0
 18 20  1  0
 20 21  1  0
 21 22  1  0
  5 23  2  0
 23 24  1  0
 24  2  2  0
 11  6  1  0
 19 14  2  0
 22 17  1  0
  3 25  1  0
  4 26  1  0
  6 27  1  1
  7 28  1  0
  7 29  1  0
  8 30  1  0
  8 31  1  0
  9 32  1  0
  9 33  1  0
 10 34  1  0
 10 35  1  0
 11 36  1  6
 12 37  1  0
 12 38  1  0
 15 39  1  0
 16 40  1  0
 19 41  1  0
 21 42  1  0
 21 43  1  0
 23 44  1  0
 24 45  1  0
M  CHG  1   9   1
M  END
>  <meeko>  (12) 
{"is_sidechain": [false], "free_energy": -8.801, "intermolecular_energy": -11.445, "internal_energy": -0.528}

$$$$
seed-2402
     RDKit          3D

 45 48  0  0  0  0  0  0  0  0999 V2000
  136.5370  121.1630  127.1080 F   0  0  0  0  0  0  0  0  0  0  0  0
  136.1500  121.6420  125.9190 C   0  0  0  0  0  0  0  0  0  0  0  0
  136.7930  122.7500  125.3860 C   0  0  0  0  0  0  0  0  0  0  0  0
  136.3890  123.2540  124.1480 C   0  0  0  0  0  0  0  0  0  0  0  0
  135.3370  122.6490  123.4370 C   0  0  0  0  0  0  0  0  0  0  0  0
  134.8760  123.1740  122.0880 C   0  0  2  0  0  0  0  0  0  0  0  0
  136.0340  123.0310  121.0770 C   0  0  0  0  0  0  0  0  0  0  0  0
  135.6470  123.5210  119.6950 C   0  0  0  0  0  0  0  0  0  0  0  0
  135.1740  124.9300  119.8030 N   0  0  0  0  0  0  0  0  0  0  0  0
  133.9900  125.0960  120.6930 C   0  0  0  0  0  0  0  0  0  0  0  0
  134.3200  124.6290  122.1130 C   0  0  1  0  0  0  0  0  0  0  0  0
  133.0370  124.7730  122.9630 C   0  0  0  0  0  0  0  0  0  0  0  0
  133.2920  124.7000  124.3590 O   0  0  0  0  0  0  0  0  0  0  0  0
  132.2580  124.8660  125.2380 C   0  0  0  0  0  0  0  0  0  0  0  0
  131.9010  126.2130  125.4590 C   0  0  0  0  0  0  0  0  0  0  0  0
  130.8520  126.5560  126.3160 C   0  0  0  0  0  0  0  0  0  0  0  0
  130.1820  125.5280  126.9400 C   0  0  0  0  0  0  0  0  0  0  0  0
  130.5280  124.2150  126.7340 C   0  0  0  0  0  0  0  0  0  0  0  0
  131.5620  123.8490  125.8940 C   0  0  0  0  0  0  0  0  0  0  0  0
  129.7440  123.3550  127.4390 O   0  0  0  0  0  0  0  0  0  0  0  0
  128.8890  124.2840  128.1440 C   0  0  0  0  0  0  0  0  0  0  0  0
  129.1400  125.6620  127.8010 O   0  0  0  0  0  0  0  0  0  0  0  0
  134.7050  121.5240  123.9970 C   0  0  0  0  0  0  0  0  0  0  0  0
  135.1120  121.0240  125.2360 C   0  0  0  0  0  0  0  0  0  0  0  0
  137.6167  123.2289  125.9358 H   0  0  0  0  0  0  0  0  0  0  0  0
  136.8983  124.1324  123.7249 H   0  0  0  0  0  0  0  0  0  0  0  0
  134.0156  122.5616  121.7802 H   0  0  0  0  0  0  0  0  0  0  0  0
  136.8921  123.6191  121.4347 H   0  0  0  0  0  0  0  0  0  0  0  0
  136.2870  121.9633  120.9998 H   0  0  0  0  0  0  0  0  0  0  0  0
  136.5201  123.4737  119.0275 H   0  0  0  0  0  0  0  0  0  0  0  0
  134.8475  122.8877  119.2830 H   0  0  0  0  0  0  0  0  0  0  0  0
  135.9460  125.5310  120.1280 H   0  0  0  0  0  0  0  0  0  0  0  0
  134.9410  125.2760  118.8610 H   0  0  0  0  0  0  0  0  0  0  0  0
  133.7016  126.1572  120.7183 H   0  0  0  0  0  0  0  0  0  0  0  0
  133.1611  124.4882  120.3011 H   0  0  0  0  0  0  0  0  0  0  0  0
  135.1114  125.2446  122.5655 H   0  0  0  0  0  0  0  0  0  0  0  0
  132.5749  125.7461  122.7403 H   0  0  0  0  0  0  0  0  0  0  0  0
  132.3711  123.9369  122.7031 H   0  0  0  0  0  0  0  0  0  0  0  0
  132.4600  127.0095  124.9461 H   0  0  0  0  0  0  0  0  0  0  0  0
  130.5725  127.6063  126.4854 H   0  0  0  0  0  0  0  0  0  0  0  0
  131.8279  122.7918  125.7470 H   0  0  0  0  0  0  0  0  0  0  0  0
  127.8423  124.0487  127.9011 H   0  0  0  0  0  0  0  0  0  0  0  0
  129.1003  124.1714  129.2176 H   0  0  0  0  0  0  0  0  0  0  0  0
  133.8832  121.0338  123.4545 H   0  0  0  0  0  0  0  0  0  0  0  0
  134.6122  120.1446  125.6683 H   0  0  0  0  0  0  0  0  0  0  0  0
  1  2  1  0
  2  3  1  0
  3  4  2  0
  4  5  1  0
  5  6  1  0
  6  7  1  0
  7  8  1  0
  8  9  1  0
  9 10  1  0
 10 11  1  0
 11 12  1  0
 12 13  1  0
 13 14  1  0
 14 15  1  0
 15 16  2  0
 16 17  1  0
 17 18  2  0
 18 19  1  0
 18 20  1  0
 20 21  1  0
 21 22  1  0
  5 23  2  0
 23 24  1  0
 24  2  2  0
 11  6  1  0
 19 14  2  0
 22 17  1  0
  3 25  1  0
  4 26  1  0
  6 27  1  6
  7 28  1  0
  7 29  1  0
  8 30  1  0
  8 31  1  0
  9 32  1  0
  9 33  1  0
 10 34  1  0
 10 35  1  0
 11 36  1  1
 12 37  1  0
 12 38  1  0
 15 39  1  0
 16 40  1  0
 19 41  1  0
 21 42  1  0
 21 43  1  0
 23 44  1  0
 24 45  1  0
M  CHG  1   9   1
M  END
>  <meeko>  (13) 
{"is_sidechain": [false], "free_energy": -8.757, "intermolecular_energy": -11.237, "internal_energy": -0.681}

$$$$
seed-2402
     RDKit          3D

 45 48  0  0  0  0  0  0  0  0999 V2000
  134.7400  121.8010  115.8490 F   0  0  0  0  0  0  0  0  0  0  0  0
  134.7240  122.4890  116.9980 C   0  0  0  0  0  0  0  0  0  0  0  0
  135.3040  121.9400  118.1320 C   0  0  0  0  0  0  0  0  0  0  0  0
  135.2860  122.6530  119.3330 C   0  0  0  0  0  0  0  0  0  0  0  0
  134.6840  123.9230  119.4020 C   0  0  0  0  0  0  0  0  0  0  0  0
  134.6500  124.7240  120.6930 C   0  0  2  0  0  0  0  0  0  0  0  0
  134.3250  126.1960  120.3560 C   0  0  0  0  0  0  0  0  0  0  0  0
  134.2580  127.0620  121.5990 C   0  0  0  0  0  0  0  0  0  0  0  0
  135.5430  126.9320  122.3420 N   0  0  0  0  0  0  0  0  0  0  0  0
  135.8440  125.5380  122.7750 C   0  0  0  0  0  0  0  0  0  0  0  0
  135.9380  124.6110  121.5600 C   0  0  1  0  0  0  0  0  0  0  0  0
  136.1930  123.1790  122.0840 C   0  0  0  0  0  0  0  0  0  0  0  0
  135.0940  122.6590  122.8180 O   0  0  0  0  0  0  0  0  0  0  0  0
  135.2190  122.4660  124.1660 C   0  0  0  0  0  0  0  0  0  0  0  0
  134.1880  123.0530  124.9290 C   0  0  0  0  0  0  0  0  0  0  0  0
  134.1570  122.9340  126.3210 C   0  0  0  0  0  0  0  0  0  0  0  0
  135.1730  122.2250  126.9190 C   0  0  0  0  0  0  0  0  0  0  0  0
  136.1840  121.6570  126.1820 C   0  0  0  0  0  0  0  0  0  0  0  0
  136.2390  121.7600  124.8060 C   0  0  0  0  0  0  0  0  0  0  0  0
  137.0860  120.9980  126.9590 O   0  0  0  0  0  0  0  0  0  0  0  0
  136.5470  121.2540  128.2770 C   0  0  0  0  0  0  0  0  0  0  0  0
  135.3130  122.0000  128.2520 O   0  0  0  0  0  0  0  0  0  0  0  0
  134.1080  124.4590  118.2370 C   0  0  0  0  0  0  0  0  0  0  0  0
  134.1290  123.7420  117.0390 C   0  0  0  0  0  0  0  0  0  0  0  0
  135.7761  120.9475  118.0858 H   0  0  0  0  0  0  0  0  0  0  0  0
  135.7463  122.2180  120.2324 H   0  0  0  0  0  0  0  0  0  0  0  0
  133.8610  124.2880  121.3233 H   0  0  0  0  0  0  0  0  0  0  0  0
  135.1080  126.5893  119.6910 H   0  0  0  0  0  0  0  0  0  0  0  0
  133.3389  126.2234  119.8694 H   0  0  0  0  0  0  0  0  0  0  0  0
  134.1018  128.1120  121.3106 H   0  0  0  0  0  0  0  0  0  0  0  0
  133.4221  126.7382  122.2366 H   0  0  0  0  0  0  0  0  0  0  0  0
  136.3160  127.2970  121.7640 H   0  0  0  0  0  0  0  0  0  0  0  0
  135.5120  127.5450  123.1690 H   0  0  0  0  0  0  0  0  0  0  0  0
  136.8018  125.5251  123.3158 H   0  0  0  0  0  0  0  0  0  0  0  0
  135.0349  125.1854  123.4315 H   0  0  0  0  0  0  0  0  0  0  0  0
  136.7696  124.8962  120.8988 H   0  0  0  0  0  0  0  0  0  0  0  0
  136.3859  122.5194  121.2251 H   0  0  0  0  0  0  0  0  0  0  0  0
  137.0555  123.2237  122.7652 H   0  0  0  0  0  0  0  0  0  0  0  0
  133.3927  123.6156  124.4182 H   0  0  0  0  0  0  0  0  0  0  0  0
  133.3514  123.3896  126.9155 H   0  0  0  0  0  0  0  0  0  0  0  0
  137.0588  121.3013  124.2337 H   0  0  0  0  0  0  0  0  0  0  0  0
  136.3622  120.2894  128.7724 H   0  0  0  0  0  0  0  0  0  0  0  0
  137.2856  121.8627  128.8192 H   0  0  0  0  0  0  0  0  0  0  0  0
  133.6365  125.4523  118.2695 H   0  0  0  0  0  0  0  0  0  0  0  0
  133.6760  124.1684  116.1319 H   0  0  0  0  0  0  0  0  0  0  0  0
  1  2  1  0
  2  3  1  0
  3  4  2  0
  4  5  1  0
  5  6  1  0
  6  7  1  0
  7  8  1  0
  8  9  1  0
  9 10  1  0
 10 11  1  0
 11 12  1  0
 12 13  1  0
 13 14  1  0
 14 15  1  0
 15 16  2  0
 16 17  1  0
 17 18  2  0
 18 19  1  0
 18 20  1  0
 20 21  1  0
 21 22  1  0
  5 23  2  0
 23 24  1  0
 24  2  2  0
 11  6  1  0
 19 14  2  0
 22 17  1  0
  3 25  1  0
  4 26  1  0
  6 27  1  1
  7 28  1  0
  7 29  1  0
  8 30  1  0
  8 31  1  0
  9 32  1  0
  9 33  1  0
 10 34  1  0
 10 35  1  0
 11 36  1  6
 12 37  1  0
 12 38  1  0
 15 39  1  0
 16 40  1  0
 19 41  1  0
 21 42  1  0
 21 43  1  0
 23 44  1  0
 24 45  1  0
M  CHG  1   9   1
M  END
>  <meeko>  (14) 
{"is_sidechain": [false], "free_energy": -8.651, "intermolecular_energy": -11.667, "internal_energy": -0.121}

$$$$
seed-2402
     RDKit          3D

 45 48  0  0  0  0  0  0  0  0999 V2000
  134.6120  125.2070  118.2330 F   0  0  0  0  0  0  0  0  0  0  0  0
  134.7000  124.7910  119.5030 C   0  0  0  0  0  0  0  0  0  0  0  0
  135.3230  123.5850  119.7850 C   0  0  0  0  0  0  0  0  0  0  0  0
  135.4120  123.1460  121.1080 C   0  0  0  0  0  0  0  0  0  0  0  0
  134.8750  123.9160  122.1560 C   0  0  0  0  0  0  0  0  0  0  0  0
  134.9570  123.4660  123.6050 C   0  0  2  0  0  0  0  0  0  0  0  0
  136.2760  122.6900  123.8100 C   0  0  0  0  0  0  0  0  0  0  0  0
  136.4410  122.2170  125.2410 C   0  0  0  0  0  0  0  0  0  0  0  0
  135.2510  121.4020  125.6160 N   0  0  0  0  0  0  0  0  0  0  0  0
  133.9640  122.1470  125.5290 C   0  0  0  0  0  0  0  0  0  0  0  0
  133.7310  122.6430  124.0990 C   0  0  1  0  0  0  0  0  0  0  0  0
  132.4150  123.4530  124.0940 C   0  0  0  0  0  0  0  0  0  0  0  0
  131.9840  123.8100  125.4010 O   0  0  0  0  0  0  0  0  0  0  0  0
  131.3020  124.9800  125.5850 C   0  0  0  0  0  0  0  0  0  0  0  0
  130.7890  125.1480  126.8880 C   0  0  0  0  0  0  0  0  0  0  0  0
  130.0820  126.2980  127.2490 C   0  0  0  0  0  0  0  0  0  0  0  0
  129.9010  127.2600  126.2810 C   0  0  0  0  0  0  0  0  0  0  0  0
  130.3920  127.0990  125.0080 C   0  0  0  0  0  0  0  0  0  0  0  0
  131.0930  125.9720  124.6250 C   0  0  0  0  0  0  0  0  0  0  0  0
  130.1100  128.1620  124.2050 O   0  0  0  0  0  0  0  0  0  0  0  0
  129.3490  128.9920  125.1120 C   0  0  0  0  0  0  0  0  0  0  0  0
  129.2470  128.4390  126.4400 O   0  0  0  0  0  0  0  0  0  0  0  0
  134.2520  125.1370  121.8430 C   0  0  0  0  0  0  0  0  0  0  0  0
  134.1650  125.5720  120.5180 C   0  0  0  0  0  0  0  0  0  0  0  0
  135.7450  122.9771  118.9712 H   0  0  0  0  0  0  0  0  0  0  0  0
  135.9065  122.1894  121.3326 H   0  0  0  0  0  0  0  0  0  0  0  0
  134.9410  124.3733  124.2267 H   0  0  0  0  0  0  0  0  0  0  0  0
  136.2800  121.8145  123.1440 H   0  0  0  0  0  0  0  0  0  0  0  0
  137.1093  123.3699  123.5790 H   0  0  0  0  0  0  0  0  0  0  0  0
  137.3506  121.6043  125.3256 H   0  0  0  0  0  0  0  0  0  0  0  0
  136.5289  123.0828  125.9137 H   0  0  0  0  0  0  0  0  0  0  0  0
  135.2110  120.5570  125.0250 H   0  0  0  0  0  0  0  0  0  0  0  0
  135.3770  121.0530  126.5770 H   0  0  0  0  0  0  0  0  0  0  0  0
  133.1388  121.4806  125.8207 H   0  0  0  0  0  0  0  0  0  0  0  0
  134.0065  123.0136  126.2052 H   0  0  0  0  0  0  0  0  0  0  0  0
  133.6299  121.8049  123.3938 H   0  0  0  0  0  0  0  0  0  0  0  0
  132.5706  124.3730  123.5115 H   0  0  0  0  0  0  0  0  0  0  0  0
  131.6354  122.8165  123.6500 H   0  0  0  0  0  0  0  0  0  0  0  0
  130.9488  124.3572  127.6357 H   0  0  0  0  0  0  0  0  0  0  0  0
  129.6856  126.4294  128.2667 H   0  0  0  0  0  0  0  0  0  0  0  0
  131.4735  125.8600  123.5990 H   0  0  0  0  0  0  0  0  0  0  0  0
  129.8379  129.9751  125.1795 H   0  0  0  0  0  0  0  0  0  0  0  0
  128.3279  129.0644  124.7093 H   0  0  0  0  0  0  0  0  0  0  0  0
  133.8293  125.7554  122.6485 H   0  0  0  0  0  0  0  0  0  0  0  0
  133.6753  126.5280  120.2807 H   0  0  0  0  0  0  0  0  0  0  0  0
  1  2  1  0
  2  3  1  0
  3  4  2  0
  4  5  1  0
  5  6  1  0
  6  7  1  0
  7  8  1  0
  8  9  1  0
  9 10  1  0
 10 11  1  0
 11 12  1  0
 12 13  1  0
 13 14  1  0
 14 15  1  0
 15 16  2  0
 16 17  1  0
 17 18  2  0
 18 19  1  0
 18 20  1  0
 20 21  1  0
 21 22  1  0
  5 23  2  0
 23 24  1  0
 24  2  2  0
 11  6  1  0
 19 14  2  0
 22 17  1  0
  3 25  1  0
  4 26  1  0
  6 27  1  1
  7 28  1  0
  7 29  1  0
  8 30  1  0
  8 31  1  0
  9 32  1  0
  9 33  1  0
 10 34  1  0
 10 35  1  0
 11 36  1  6
 12 37  1  0
 12 38  1  0
 15 39  1  0
 16 40  1  0
 19 41  1  0
 21 42  1  0
 21 43  1  0
 23 44  1  0
 24 45  1  0
M  CHG  1   9   1
M  END
>  <meeko>  (15) 
{"is_sidechain": [false], "free_energy": -8.603, "intermolecular_energy": -11.038, "internal_energy": -0.691}

$$$$
seed-2402
     RDKit          3D

 45 48  0  0  0  0  0  0  0  0999 V2000
  129.5160  125.7130  127.3960 F   0  0  0  0  0  0  0  0  0  0  0  0
  130.5890  125.0930  126.8890 C   0  0  0  0  0  0  0  0  0  0  0  0
  131.6410  125.8470  126.3900 C   0  0  0  0  0  0  0  0  0  0  0  0
  132.7600  125.2040  125.8560 C   0  0  0  0  0  0  0  0  0  0  0  0
  132.8280  123.7990  125.8190 C   0  0  0  0  0  0  0  0  0  0  0  0
  134.0320  123.0700  125.2450 C   0  0  2  0  0  0  0  0  0  0  0  0
  134.6970  122.2480  126.3710 C   0  0  0  0  0  0  0  0  0  0  0  0
  135.9040  121.4760  125.8730 C   0  0  0  0  0  0  0  0  0  0  0  0
  136.8580  122.4330  125.2450 N   0  0  0  0  0  0  0  0  0  0  0  0
  136.2850  123.1760  124.0870 C   0  0  0  0  0  0  0  0  0  0  0  0
  135.0650  123.9890  124.5270 C   0  0  1  0  0  0  0  0  0  0  0  0
  134.4880  124.6830  123.2720 C   0  0  0  0  0  0  0  0  0  0  0  0
  135.4660  124.8910  122.2620 O   0  0  0  0  0  0  0  0  0  0  0  0
  135.2570  124.3760  121.0120 C   0  0  0  0  0  0  0  0  0  0  0  0
  135.7880  123.0830  120.8260 C   0  0  0  0  0  0  0  0  0  0  0  0
  135.6470  122.4060  119.6120 C   0  0  0  0  0  0  0  0  0  0  0  0
  134.9710  123.0530  118.6020 C   0  0  0  0  0  0  0  0  0  0  0  0
  134.4570  124.3150  118.7740 C   0  0  0  0  0  0  0  0  0  0  0  0
  134.5850  125.0060  119.9630 C   0  0  0  0  0  0  0  0  0  0  0  0
  133.8250  124.7740  117.6600 O   0  0  0  0  0  0  0  0  0  0  0  0
  134.0370  123.6680  116.7530 C   0  0  0  0  0  0  0  0  0  0  0  0
  134.7320  122.5590  117.3590 O   0  0  0  0  0  0  0  0  0  0  0  0
  131.7500  123.0590  126.3350 C   0  0  0  0  0  0  0  0  0  0  0  0
  130.6340  123.7070  126.8680 C   0  0  0  0  0  0  0  0  0  0  0  0
  131.5942  126.9457  126.4147 H   0  0  0  0  0  0  0  0  0  0  0  0
  133.5952  125.8010  125.4610 H   0  0  0  0  0  0  0  0  0  0  0  0
  133.6604  122.4078  124.4491 H   0  0  0  0  0  0  0  0  0  0  0  0
  135.0182  122.9335  127.1691 H   0  0  0  0  0  0  0  0  0  0  0  0
  133.9591  121.5222  126.7435 H   0  0  0  0  0  0  0  0  0  0  0  0
  136.3921  120.9673  126.7174 H   0  0  0  0  0  0  0  0  0  0  0  0
  135.5889  120.7230  125.1356 H   0  0  0  0  0  0  0  0  0  0  0  0
  137.2000  123.0980  125.9560 H   0  0  0  0  0  0  0  0  0  0  0  0
  137.6930  121.9150  124.9360 H   0  0  0  0  0  0  0  0  0  0  0  0
  137.0470  123.8570  123.6801 H   0  0  0  0  0  0  0  0  0  0  0  0
  135.9745  122.4539  123.3174 H   0  0  0  0  0  0  0  0  0  0  0  0
  135.3399  124.7612  125.2606 H   0  0  0  0  0  0  0  0  0  0  0  0
  133.6849  124.0543  122.8601 H   0  0  0  0  0  0  0  0  0  0  0  0
  134.1139  125.6703  123.5807 H   0  0  0  0  0  0  0  0  0  0  0  0
  136.3246  122.5971  121.6542 H   0  0  0  0  0  0  0  0  0  0  0  0
  136.0596  121.3964  119.4688 H   0  0  0  0  0  0  0  0  0  0  0  0
  134.1714  126.0186  120.0795 H   0  0  0  0  0  0  0  0  0  0  0  0
  133.0576  123.3146  116.3983 H   0  0  0  0  0  0  0  0  0  0  0  0
  134.6670  124.0372  115.9303 H   0  0  0  0  0  0  0  0  0  0  0  0
  131.7860  121.9597  126.3187 H   0  0  0  0  0  0  0  0  0  0  0  0
  129.7942  123.1208  127.2695 H   0  0  0  0  0  0  0  0  0  0  0  0
  1  2  1  0
  2  3  1  0
  3  4  2  0
  4  5  1  0
  5  6  1  0
  6  7  1  0
  7  8  1  0
  8  9  1  0
  9 10  1  0
 10 11  1  0
 11 12  1  0
 12 13  1  0
 13 14  1  0
 14 15  1  0
 15 16  2  0
 16 17  1  0
 17 18  2  0
 18 19  1  0
 18 20  1  0
 20 21  1  0
 21 22  1  0
  5 23  2  0
 23 24  1  0
 24  2  2  0
 11  6  1  0
 19 14  2  0
 22 17  1  0
  3 25  1  0
  4 26  1  0
  6 27  1  6
  7 28  1  0
  7 29  1  0
  8 30  1  0
  8 31  1  0
  9 32  1  0
  9 33  1  0
 10 34  1  0
 10 35  1  0
 11 36  1  1
 12 37  1  0
 12 38  1  0
 15 39  1  0
 16 40  1  0
 19 41  1  0
 21 42  1  0
 21 43  1  0
 23 44  1  0
 24 45  1  0
M  CHG  1   9   1
M  END
>  <meeko>  (16) 
{"is_sidechain": [false], "free_energy": -8.549, "intermolecular_energy": -11.581, "internal_energy": -0.082}

$$$$
seed-2402
     RDKit          3D

 45 48  0  0  0  0  0  0  0  0999 V2000
  135.0940  124.6120  118.3990 F   0  0  0  0  0  0  0  0  0  0  0  0
  135.2360  124.4060  119.7150 C   0  0  0  0  0  0  0  0  0  0  0  0
  135.3690  125.4930  120.5660 C   0  0  0  0  0  0  0  0  0  0  0  0
  135.5220  125.2810  121.9380 C   0  0  0  0  0  0  0  0  0  0  0  0
  135.5430  123.9760  122.4640 C   0  0  0  0  0  0  0  0  0  0  0  0
  135.7070  123.7140  123.9510 C   0  0  2  0  0  0  0  0  0  0  0  0
  136.2340  122.2760  124.1470 C   0  0  0  0  0  0  0  0  0  0  0  0
  136.4390  121.9400  125.6120 C   0  0  0  0  0  0  0  0  0  0  0  0
  135.1570  122.1660  126.3380 N   0  0  0  0  0  0  0  0  0  0  0  0
  134.6650  123.5710  126.2580 C   0  0  0  0  0  0  0  0  0  0  0  0
  134.4250  123.9690  124.7990 C   0  0  1  0  0  0  0  0  0  0  0  0
  133.9740  125.4480  124.7870 C   0  0  0  0  0  0  0  0  0  0  0  0
  132.7950  125.6560  124.0220 O   0  0  0  0  0  0  0  0  0  0  0  0
  131.6520  126.0660  124.6510 C   0  0  0  0  0  0  0  0  0  0  0  0
  130.7650  126.7830  123.8230 C   0  0  0  0  0  0  0  0  0  0  0  0
  129.5420  127.2580  124.3060 C   0  0  0  0  0  0  0  0  0  0  0  0
  129.2390  127.0020  125.6230 C   0  0  0  0  0  0  0  0  0  0  0  0
  130.1020  126.3090  126.4370 C   0  0  0  0  0  0  0  0  0  0  0  0
  131.3170  125.8300  125.9860 C   0  0  0  0  0  0  0  0  0  0  0  0
  129.6170  126.1590  127.7000 O   0  0  0  0  0  0  0  0  0  0  0  0
  128.3640  126.8740  127.5950 C   0  0  0  0  0  0  0  0  0  0  0  0
  128.1050  127.3780  126.2690 O   0  0  0  0  0  0  0  0  0  0  0  0
  135.4020  122.8920  121.5790 C   0  0  0  0  0  0  0  0  0  0  0  0
  135.2500  123.1090  120.2080 C   0  0  0  0  0  0  0  0  0  0  0  0
  135.3541  126.5163  120.1627 H   0  0  0  0  0  0  0  0  0  0  0  0
  135.6271  126.1425  122.6139 H   0  0  0  0  0  0  0  0  0  0  0  0
  136.4336  124.4476  124.3305 H   0  0  0  0  0  0  0  0  0  0  0  0
  135.5069  121.5700  123.7192 H   0  0  0  0  0  0  0  0  0  0  0  0
  137.2080  122.1995  123.6416 H   0  0  0  0  0  0  0  0  0  0  0  0
  136.7401  120.8867  125.7116 H   0  0  0  0  0  0  0  0  0  0  0  0
  137.2276  122.5788  126.0363 H   0  0  0  0  0  0  0  0  0  0  0  0
  134.4380  121.5190  125.9800 H   0  0  0  0  0  0  0  0  0  0  0  0
  135.2850  121.9080  127.3260 H   0  0  0  0  0  0  0  0  0  0  0  0
  133.7218  123.6574  126.8173 H   0  0  0  0  0  0  0  0  0  0  0  0
  135.4231  124.2403  126.6909 H   0  0  0  0  0  0  0  0  0  0  0  0
  133.6352  123.3571  124.3388 H   0  0  0  0  0  0  0  0  0  0  0  0
  133.7821  125.7657  125.8225 H   0  0  0  0  0  0  0  0  0  0  0  0
  134.7790  126.0368  124.3231 H   0  0  0  0  0  0  0  0  0  0  0  0
  131.0407  126.9728  122.7751 H   0  0  0  0  0  0  0  0  0  0  0  0
  128.8491  127.8148  123.6580 H   0  0  0  0  0  0  0  0  0  0  0  0
  131.9966  125.2819  126.6551 H   0  0  0  0  0  0  0  0  0  0  0  0
  127.5479  126.1916  127.8748 H   0  0  0  0  0  0  0  0  0  0  0  0
  128.4267  127.7423  128.2674 H   0  0  0  0  0  0  0  0  0  0  0  0
  135.4115  121.8640  121.9704 H   0  0  0  0  0  0  0  0  0  0  0  0
  135.1419  122.2559  119.5221 H   0  0  0  0  0  0  0  0  0  0  0  0
  1  2  1  0
  2  3  1  0
  3  4  2  0
  4  5  1  0
  5  6  1  0
  6  7  1  0
  7  8  1  0
  8  9  1  0
  9 10  1  0
 10 11  1  0
 11 12  1  0
 12 13  1  0
 13 14  1  0
 14 15  1  0
 15 16  2  0
 16 17  1  0
 17 18  2  0
 18 19  1  0
 18 20  1  0
 20 21  1  0
 21 22  1  0
  5 23  2  0
 23 24  1  0
 24  2  2  0
 11  6  1  0
 19 14  2  0
 22 17  1  0
  3 25  1  0
  4 26  1  0
  6 27  1  1
  7 28  1  0
  7 29  1  0
  8 30  1  0
  8 31  1  0
  9 32  1  0
  9 33  1  0
 10 34  1  0
 10 35  1  0
 11 36  1  6
 12 37  1  0
 12 38  1  0
 15 39  1  0
 16 40  1  0
 19 41  1  0
 21 42  1  0
 21 43  1  0
 23 44  1  0
 24 45  1  0
M  CHG  1   9   1
M  END
>  <meeko>  (17) 
{"is_sidechain": [false], "free_energy": -8.515, "intermolecular_energy": -11.076, "internal_energy": -0.544}

$$$$
seed-2402
     RDKit          3D

 45 48  0  0  0  0  0  0  0  0999 V2000
  134.6920  122.7990  116.8000 F   0  0  0  0  0  0  0  0  0  0  0  0
  134.8080  123.3570  118.0120 C   0  0  0  0  0  0  0  0  0  0  0  0
  134.2370  124.5980  118.2510 C   0  0  0  0  0  0  0  0  0  0  0  0
  134.3590  125.1840  119.5130 C   0  0  0  0  0  0  0  0  0  0  0  0
  135.0570  124.5270  120.5430 C   0  0  0  0  0  0  0  0  0  0  0  0
  135.2070  125.1380  121.9260 C   0  0  2  0  0  0  0  0  0  0  0  0
  136.4470  126.0570  121.9320 C   0  0  0  0  0  0  0  0  0  0  0  0
  136.6580  126.7190  123.2800 C   0  0  0  0  0  0  0  0  0  0  0  0
  136.7450  125.6600  124.3250 N   0  0  0  0  0  0  0  0  0  0  0  0
  135.5230  124.8130  124.4200 C   0  0  0  0  0  0  0  0  0  0  0  0
  135.2610  124.1030  123.0890 C   0  0  1  0  0  0  0  0  0  0  0  0
  133.9530  123.2930  123.2410 C   0  0  0  0  0  0  0  0  0  0  0  0
  132.8010  124.0320  122.8610 O   0  0  0  0  0  0  0  0  0  0  0  0
  132.0670  124.6700  123.8230 C   0  0  0  0  0  0  0  0  0  0  0  0
  131.6380  125.9620  123.4560 C   0  0  0  0  0  0  0  0  0  0  0  0
  130.8630  126.7430  124.3180 C   0  0  0  0  0  0  0  0  0  0  0  0
  130.5370  126.2020  125.5410 C   0  0  0  0  0  0  0  0  0  0  0  0
  130.9580  124.9470  125.9070 C   0  0  0  0  0  0  0  0  0  0  0  0
  131.7260  124.1560  125.0750 C   0  0  0  0  0  0  0  0  0  0  0  0
  130.5290  124.5970  127.1500 O   0  0  0  0  0  0  0  0  0  0  0  0
  129.8220  125.7970  127.5400 C   0  0  0  0  0  0  0  0  0  0  0  0
  129.7940  126.8030  126.5070 O   0  0  0  0  0  0  0  0  0  0  0  0
  135.6230  123.2680  120.2750 C   0  0  0  0  0  0  0  0  0  0  0  0
  135.4980  122.6860  119.0120 C   0  0  0  0  0  0  0  0  0  0  0  0
  133.6906  125.1183  117.4505 H   0  0  0  0  0  0  0  0  0  0  0  0
  133.9053  126.1679  119.7033 H   0  0  0  0  0  0  0  0  0  0  0  0
  134.2944  125.7195  122.1232 H   0  0  0  0  0  0  0  0  0  0  0  0
  137.3355  125.4559  121.6888 H   0  0  0  0  0  0  0  0  0  0  0  0
  136.2858  126.8494  121.1862 H   0  0  0  0  0  0  0  0  0  0  0  0
  137.5913  127.3009  123.2644 H   0  0  0  0  0  0  0  0  0  0  0  0
  135.8186  127.3948  123.5007 H   0  0  0  0  0  0  0  0  0  0  0  0
  137.5720  125.0690  124.1500 H   0  0  0  0  0  0  0  0  0  0  0  0
  136.9210  126.1060  125.2360 H   0  0  0  0  0  0  0  0  0  0  0  0
  135.6637  124.0610  125.2104 H   0  0  0  0  0  0  0  0  0  0  0  0
  134.6617  125.4546  124.6578 H   0  0  0  0  0  0  0  0  0  0  0  0
  136.0759  123.4091  122.8351 H   0  0  0  0  0  0  0  0  0  0  0  0
  134.0196  122.3958  122.6081 H   0  0  0  0  0  0  0  0  0  0  0  0
  133.8450  123.0347  124.3048 H   0  0  0  0  0  0  0  0  0  0  0  0
  131.9190  126.3635  122.4712 H   0  0  0  0  0  0  0  0  0  0  0  0
  130.5269  127.7501  124.0304 H   0  0  0  0  0  0  0  0  0  0  0  0
  132.0576  123.1551  125.3884 H   0  0  0  0  0  0  0  0  0  0  0  0
  128.7861  125.5259  127.7916 H   0  0  0  0  0  0  0  0  0  0  0  0
  130.3580  126.2266  128.3992 H   0  0  0  0  0  0  0  0  0  0  0  0
  136.1695  122.7365  121.0680 H   0  0  0  0  0  0  0  0  0  0  0  0
  135.9440  121.7009  118.8106 H   0  0  0  0  0  0  0  0  0  0  0  0
  1  2  1  0
  2  3  1  0
  3  4  2  0
  4  5  1  0
  5  6  1  0
  6  7  1  0
  7  8  1  0
  8  9  1  0
  9 10  1  0
 10 11  1  0
 11 12  1  0
 12 13  1  0
 13 14  1  0
 14 15  1  0
 15 16  2  0
 16 17  1  0
 17 18  2  0
 18 19  1  0
 18 20  1  0
 20 21  1  0
 21 22  1  0
  5 23  2  0
 23 24  1  0
 24  2  2  0
 11  6  1  0
 19 14  2  0
 22 17  1  0
  3 25  1  0
  4 26  1  0
  6 27  1  1
  7 28  1  0
  7 29  1  0
  8 30  1  0
  8 31  1  0
  9 32  1  0
  9 33  1  0
 10 34  1  0
 10 35  1  0
 11 36  1  6
 12 37  1  0
 12 38  1  0
 15 39  1  0
 16 40  1  0
 19 41  1  0
 21 42  1  0
 21 43  1  0
 23 44  1  0
 24 45  1  0
M  CHG  1   9   1
M  END
>  <meeko>  (18) 
{"is_sidechain": [false], "free_energy": -8.441, "intermolecular_energy": -10.757, "internal_energy": -0.772}

$$$$
seed-2402
     RDKit          3D

 45 48  0  0  0  0  0  0  0  0999 V2000
  135.9430  124.4220  122.8550 F   0  0  0  0  0  0  0  0  0  0  0  0
  134.6960  124.7910  123.1760 C   0  0  0  0  0  0  0  0  0  0  0  0
  133.6220  124.0430  122.7170 C   0  0  0  0  0  0  0  0  0  0  0  0
  132.3210  124.4280  123.0460 C   0  0  0  0  0  0  0  0  0  0  0  0
  132.0890  125.5660  123.8390 C   0  0  0  0  0  0  0  0  0  0  0  0
  130.6860  126.0090  124.2150 C   0  0  2  0  0  0  0  0  0  0  0  0
  130.5030  127.4860  123.8030 C   0  0  0  0  0  0  0  0  0  0  0  0
  129.1160  128.0020  124.1340 C   0  0  0  0  0  0  0  0  0  0  0  0
  128.8630  127.7940  125.5880 N   0  0  0  0  0  0  0  0  0  0  0  0
  128.9290  126.3660  126.0080 C   0  0  0  0  0  0  0  0  0  0  0  0
  130.3150  125.7880  125.7120 C   0  0  1  0  0  0  0  0  0  0  0  0
  130.2950  124.2960  126.1170 C   0  0  0  0  0  0  0  0  0  0  0  0
  131.2870  123.9750  127.0830 O   0  0  0  0  0  0  0  0  0  0  0  0
  132.3840  123.2530  126.7020 C   0  0  0  0  0  0  0  0  0  0  0  0
  132.1020  121.9120  126.3680 C   0  0  0  0  0  0  0  0  0  0  0  0
  133.1090  121.0420  125.9420 C   0  0  0  0  0  0  0  0  0  0  0  0
  134.3880  121.5430  125.8640 C   0  0  0  0  0  0  0  0  0  0  0  0
  134.6700  122.8470  126.1940 C   0  0  0  0  0  0  0  0  0  0  0  0
  133.6940  123.7270  126.6200 C   0  0  0  0  0  0  0  0  0  0  0  0
  135.9900  123.1460  126.0470 O   0  0  0  0  0  0  0  0  0  0  0  0
  136.5120  121.8650  125.6240 C   0  0  0  0  0  0  0  0  0  0  0  0
  135.4920  120.8570  125.4710 O   0  0  0  0  0  0  0  0  0  0  0  0
  133.1960  126.3040  124.2960 C   0  0  0  0  0  0  0  0  0  0  0  0
  134.4950  125.9160  123.9630 C   0  0  0  0  0  0  0  0  0  0  0  0
  133.7944  123.1509  122.0969 H   0  0  0  0  0  0  0  0  0  0  0  0
  131.4690  123.8354  122.6814 H   0  0  0  0  0  0  0  0  0  0  0  0
  129.9859  125.3637  123.6641 H   0  0  0  0  0  0  0  0  0  0  0  0
  131.2458  128.0977  124.3360 H   0  0  0  0  0  0  0  0  0  0  0  0
  130.6389  127.5535  122.7135 H   0  0  0  0  0  0  0  0  0  0  0  0
  129.0538  129.0744  123.8972 H   0  0  0  0  0  0  0  0  0  0  0  0
  128.3636  127.4608  123.5415 H   0  0  0  0  0  0  0  0  0  0  0  0
  129.5290  128.3560  126.1390 H   0  0  0  0  0  0  0  0  0  0  0  0
  127.9340  128.1740  125.8200 H   0  0  0  0  0  0  0  0  0  0  0  0
  128.7297  126.2958  127.0875 H   0  0  0  0  0  0  0  0  0  0  0  0
  128.1756  125.7933  125.4473 H   0  0  0  0  0  0  0  0  0  0  0  0
  131.0966  126.2998  126.2927 H   0  0  0  0  0  0  0  0  0  0  0  0
  129.3061  124.0587  126.5363 H   0  0  0  0  0  0  0  0  0  0  0  0
  130.5076  123.7045  125.2143 H   0  0  0  0  0  0  0  0  0  0  0  0
  131.0684  121.5436  126.4444 H   0  0  0  0  0  0  0  0  0  0  0  0
  132.8877  119.9970  125.6792 H   0  0  0  0  0  0  0  0  0  0  0  0
  133.9409  124.7655  126.8854 H   0  0  0  0  0  0  0  0  0  0  0  0
  137.0206  121.9969  124.6576 H   0  0  0  0  0  0  0  0  0  0  0  0
  137.1992  121.5172  126.4093 H   0  0  0  0  0  0  0  0  0  0  0  0
  133.0366  127.1948  124.9214 H   0  0  0  0  0  0  0  0  0  0  0  0
  135.3553  126.4994  124.3228 H   0  0  0  0  0  0  0  0  0  0  0  0
  1  2  1  0
  2  3  1  0
  3  4  2  0
  4  5  1  0
  5  6  1  0
  6  7  1  0
  7  8  1  0
  8  9  1  0
  9 10  1  0
 10 11  1  0
 11 12  1  0
 12 13  1  0
 13 14  1  0
 14 15  1  0
 15 16  2  0
 16 17  1  0
 17 18  2  0
 18 19  1  0
 18 20  1  0
 20 21  1  0
 21 22  1  0
  5 23  2  0
 23 24  1  0
 24  2  2  0
 11  6  1  0
 19 14  2  0
 22 17  1  0
  3 25  1  0
  4 26  1  0
  6 27  1  6
  7 28  1  0
  7 29  1  0
  8 30  1  0
  8 31  1  0
  9 32  1  0
  9 33  1  0
 10 34  1  0
 10 35  1  0
 11 36  1  1
 12 37  1  0
 12 38  1  0
 15 39  1  0
 16 40  1  0
 19 41  1  0
 21 42  1  0
 21 43  1  0
 23 44  1  0
 24 45  1  0
M  CHG  1   9   1
M  END
>  <meeko>  (19) 
{"is_sidechain": [false], "free_energy": -8.202, "intermolecular_energy": -9.492, "internal_energy": -1.741}

$$$$
seed-2402
     RDKit          3D

 45 48  0  0  0  0  0  0  0  0999 V2000
  129.0340  129.3680  126.4000 F   0  0  0  0  0  0  0  0  0  0  0  0
  129.7270  128.2400  126.2000 C   0  0  0  0  0  0  0  0  0  0  0  0
  129.6270  127.5820  124.9830 C   0  0  0  0  0  0  0  0  0  0  0  0
  130.3440  126.4020  124.7740 C   0  0  0  0  0  0  0  0  0  0  0  0
  131.1660  125.8750  125.7860 C   0  0  0  0  0  0  0  0  0  0  0  0
  131.9590  124.5940  125.5890 C   0  0  2  0  0  0  0  0  0  0  0  0
  131.4080  123.5150  126.5450 C   0  0  0  0  0  0  0  0  0  0  0  0
  132.1410  122.1960  126.3980 C   0  0  0  0  0  0  0  0  0  0  0  0
  133.5980  122.4330  126.6070 N   0  0  0  0  0  0  0  0  0  0  0  0
  134.1920  123.3940  125.6350 C   0  0  0  0  0  0  0  0  0  0  0  0
  133.5000  124.7560  125.7430 C   0  0  1  0  0  0  0  0  0  0  0  0
  134.1230  125.6820  124.6740 C   0  0  0  0  0  0  0  0  0  0  0  0
  133.3820  125.6990  123.4620 O   0  0  0  0  0  0  0  0  0  0  0  0
  133.9240  125.1420  122.3370 C   0  0  0  0  0  0  0  0  0  0  0  0
  134.9300  124.1880  122.5940 C   0  0  0  0  0  0  0  0  0  0  0  0
  135.5740  123.5120  121.5550 C   0  0  0  0  0  0  0  0  0  0  0  0
  135.1920  123.8160  120.2680 C   0  0  0  0  0  0  0  0  0  0  0  0
  134.2170  124.7490  120.0110 C   0  0  0  0  0  0  0  0  0  0  0  0
  133.5660  125.4330  121.0190 C   0  0  0  0  0  0  0  0  0  0  0  0
  133.9830  124.9010  118.6780 O   0  0  0  0  0  0  0  0  0  0  0  0
  134.9550  123.9830  118.1270 C   0  0  0  0  0  0  0  0  0  0  0  0
  135.6970  123.2660  119.1340 O   0  0  0  0  0  0  0  0  0  0  0  0
  131.2530  126.5630  127.0100 C   0  0  0  0  0  0  0  0  0  0  0  0
  130.5330  127.7420  127.2140 C   0  0  0  0  0  0  0  0  0  0  0  0
  128.9860  127.9877  124.1864 H   0  0  0  0  0  0  0  0  0  0  0  0
  130.2651  125.8800  123.8090 H   0  0  0  0  0  0  0  0  0  0  0  0
  131.8222  124.2877  124.5414 H   0  0  0  0  0  0  0  0  0  0  0  0
  131.5183  123.8688  127.5807 H   0  0  0  0  0  0  0  0  0  0  0  0
  130.3510  123.3456  126.2920 H   0  0  0  0  0  0  0  0  0  0  0  0
  131.7709  121.4813  127.1478 H   0  0  0  0  0  0  0  0  0  0  0  0
  131.9690  121.7815  125.3937 H   0  0  0  0  0  0  0  0  0  0  0  0
  133.7610  122.7590  127.5710 H   0  0  0  0  0  0  0  0  0  0  0  0
  134.0940  121.5330  126.5390 H   0  0  0  0  0  0  0  0  0  0  0  0
  135.2638  123.5134  125.8518 H   0  0  0  0  0  0  0  0  0  0  0  0
  134.0547  123.0029  124.6161 H   0  0  0  0  0  0  0  0  0  0  0  0
  133.6549  125.2093  126.7332 H   0  0  0  0  0  0  0  0  0  0  0  0
  134.1635  126.7052  125.0757 H   0  0  0  0  0  0  0  0  0  0  0  0
  135.1264  125.2944  124.4437 H   0  0  0  0  0  0  0  0  0  0  0  0
  135.2136  123.9716  123.6345 H   0  0  0  0  0  0  0  0  0  0  0  0
  136.3562  122.7656  121.7575 H   0  0  0  0  0  0  0  0  0  0  0  0
  132.7923  126.1811  120.7914 H   0  0  0  0  0  0  0  0  0  0  0  0
  134.4271  123.2527  117.4961 H   0  0  0  0  0  0  0  0  0  0  0  0
  135.6785  124.5804  117.5528 H   0  0  0  0  0  0  0  0  0  0  0  0
  131.8934  126.1690  127.8129 H   0  0  0  0  0  0  0  0  0  0  0  0
  130.6044  128.2737  128.1743 H   0  0  0  0  0  0  0  0  0  0  0  0
  1  2  1  0
  2  3  1  0
  3  4  2  0
  4  5  1  0
  5  6  1  0
  6  7  1  0
  7  8  1  0
  8  9  1  0
  9 10  1  0
 10 11  1  0
 11 12  1  0
 12 13  1  0
 13 14  1  0
 14 15  1  0
 15 16  2  0
 16 17  1  0
 17 18  2  0
 18 19  1  0
 18 20  1  0
 20 21  1  0
 21 22  1  0
  5 23  2  0
 23 24  1  0
 24  2  2  0
 11  6  1  0
 19 14  2  0
 22 17  1  0
  3 25  1  0
  4 26  1  0
  6 27  1  6
  7 28  1  0
  7 29  1  0
  8 30  1  0
  8 31  1  0
  9 32  1  0
  9 33  1  0
 10 34  1  0
 10 35  1  0
 11 36  1  1
 12 37  1  0
 12 38  1  0
 15 39  1  0
 16 40  1  0
 19 41  1  0
 21 42  1  0
 21 43  1  0
 23 44  1  0
 24 45  1  0
M  CHG  1   9   1
M  END
>  <meeko>  (20) 
{"is_sidechain": [false], "free_energy": -8.108, "intermolecular_energy": -10.64, "internal_energy": -0.478}

$$$$
