prl_neutral_c2
     RDKit          3D

 42 43  0  0  0  0  0  0  0  0999 V2000
    1.9089   -2.1500   -3.4017 C   0  0  0  0  0  0  0  0  0  0  0  0
    1.0712   -2.2227   -2.2071 N   0  0  0  0  0  0  0  0  0  0  0  0
    0.0088   -1.1989   -2.2115 C   0  0  0  0  0  0  0  0  0  0  0  0
    0.4565    0.2733   -2.1598 C   0  0  0  0  0  0  0  0  0  0  0  0
   -0.7249    1.2101   -2.0558 C   0  0  0  0  0  0  0  0  0  0  0  0
   -1.3339    1.7237   -3.2071 C   0  0  0  0  0  0  0  0  0  0  0  0
   -2.4355    2.5743   -3.1042 C   0  0  0  0  0  0  0  0  0  0  0  0
   -2.9428    2.9183   -1.8496 C   0  0  0  0  0  0  0  0  0  0  0  0
   -2.3499    2.4084   -0.6876 C   0  0  0  0  0  0  0  0  0  0  0  0
   -1.2441    1.5532   -0.7979 C   0  0  0  0  0  0  0  0  0  0  0  0
   -2.8450    2.7425    0.6760 C   0  0  0  0  0  0  0  0  0  0  0  0
   -2.2999    2.3700    1.7034 O   0  0  0  0  0  0  0  0  0  0  0  0
   -3.9664    3.5035    0.6057 O   0  0  0  0  0  0  0  0  0  0  0  0
   -4.5055    3.8592    1.8794 C   0  0  0  0  0  0  0  0  0  0  0  0
    1.9032   -2.2198   -0.9921 C   0  0  0  0  0  0  0  0  0  0  0  0
    1.1247   -2.4688    0.2824 C   0  0  0  0  0  0  0  0  0  0  0  0
    0.4525   -3.6847    0.4775 C   0  0  0  0  0  0  0  0  0  0  0  0
   -0.2751   -3.9138    1.6461 C   0  0  0  0  0  0  0  0  0  0  0  0
   -0.3393   -2.9304    2.6313 C   0  0  0  0  0  0  0  0  0  0  0  0
    0.3247   -1.7185    2.4501 C   0  0  0  0  0  0  0  0  0  0  0  0
    1.0563   -1.4890    1.2835 C   0  0  0  0  0  0  0  0  0  0  0  0
    1.2962   -2.1814   -4.3094 H   0  0  0  0  0  0  0  0  0  0  0  0
    2.5239   -1.2441   -3.4297 H   0  0  0  0  0  0  0  0  0  0  0  0
    2.5794   -3.0154   -3.4505 H   0  0  0  0  0  0  0  0  0  0  0  0
   -0.6048   -1.3497   -3.1107 H   0  0  0  0  0  0  0  0  0  0  0  0
   -0.6844   -1.4005   -1.3847 H   0  0  0  0  0  0  0  0  0  0  0  0
    1.0383    0.5305   -3.0531 H   0  0  0  0  0  0  0  0  0  0  0  0
    1.1175    0.4573   -1.3055 H   0  0  0  0  0  0  0  0  0  0  0  0
   -0.9545    1.4627   -4.1930 H   0  0  0  0  0  0  0  0  0  0  0  0
   -2.9010    2.9695   -4.0040 H   0  0  0  0  0  0  0  0  0  0  0  0
   -3.8005    3.5838   -1.7941 H   0  0  0  0  0  0  0  0  0  0  0  0
   -0.7872    1.1473    0.1043 H   0  0  0  0  0  0  0  0  0  0  0  0
   -5.4007    4.4642    1.7111 H   0  0  0  0  0  0  0  0  0  0  0  0
   -4.7933    2.9631    2.4381 H   0  0  0  0  0  0  0  0  0  0  0  0
   -3.7854    4.4567    2.4472 H   0  0  0  0  0  0  0  0  0  0  0  0
    2.6487   -3.0241   -1.0610 H   0  0  0  0  0  0  0  0  0  0  0  0
    2.4806   -1.2905   -0.9097 H   0  0  0  0  0  0  0  0  0  0  0  0
    0.4856   -4.4512   -0.2940 H   0  0  0  0  0  0  0  0  0  0  0  0
   -0.7971   -4.8569    1.7833 H   0  0  0  0  0  0  0  0  0  0  0  0
   -0.9110   -3.1060    3.5385 H   0  0  0  0  0  0  0  0  0  0  0  0
    0.2684   -0.9489    3.2159 H   0  0  0  0  0  0  0  0  0  0  0  0
    1.5650   -0.5362    1.1591 H   0  0  0  0  0  0  0  0  0  0  0  0
  1  2  1  0
  2  3  1  0
  3  4  1  0
  4  5  1  0
  5  6  2  0
  6  7  1  0
  7  8  2  0
  8  9  1  0
  9 10  2  0
  9 11  1  0
 11 12  2  0
 11 13  1  0
 13 14  1  0
  2 15  1  0
 15 16  1  0
 16 17  2  0
 17 18  1  0
 18 19  2  0
 19 20  1  0
 20 21  2  0
 10  5  1  0
 21 16  1  0
  1 22  1  0
  1 23  1  0
  1 24  1  0
  3 25  1  0
  3 26  1  0
  4 27  1  0
  4 28  1  0
  6 29  1  0
  7 30  1  0
  8 31  1  0
 10 32  1  0
 14 33  1  0
 14 34  1  0
 14 35  1  0
 15 36  1  0
 15 37  1  0
 17 38  1  0
 18 39  1  0
 19 40  1  0
 20 41  1  0
 21 42  1  0
M  END
>  <modeled_state>  (1) 
neutral

>  <source>  (1) 
verified PRL-8-53 graph; no paroxetine or receptor coordinates

>  <conformer_method>  (1) 
RDKit ETKDGv3 useRandomCoords=True one thread; MMFF94 maxIters=2000

>  <conformer_seed>  (1) 
5104

$$$$
