prl_protonated_c1
     RDKit          3D

 43 44  0  0  0  0  0  0  0  0999 V2000
   -2.0768   -2.0427    0.8302 C   0  0  0  0  0  0  0  0  0  0  0  0
   -0.9803   -1.7354   -0.1525 N   0  0  0  0  0  0  0  0  0  0  0  0
   -1.4861   -1.5602   -1.5740 C   0  0  0  0  0  0  0  0  0  0  0  0
   -2.1903   -0.2090   -1.7772 C   0  0  0  0  0  0  0  0  0  0  0  0
   -1.3230    0.9716   -1.4055 C   0  0  0  0  0  0  0  0  0  0  0  0
   -1.6322    1.7524   -0.2832 C   0  0  0  0  0  0  0  0  0  0  0  0
   -0.8094    2.8164    0.0866 C   0  0  0  0  0  0  0  0  0  0  0  0
    0.3283    3.1158   -0.6628 C   0  0  0  0  0  0  0  0  0  0  0  0
    0.6464    2.3596   -1.7967 C   0  0  0  0  0  0  0  0  0  0  0  0
   -0.1849    1.2901   -2.1657 C   0  0  0  0  0  0  0  0  0  0  0  0
    1.8703    2.7241   -2.5629 C   0  0  0  0  0  0  0  0  0  0  0  0
    2.6226    3.6261   -2.2355 O   0  0  0  0  0  0  0  0  0  0  0  0
    2.0218    1.9061   -3.6343 O   0  0  0  0  0  0  0  0  0  0  0  0
    3.1670    2.2135   -4.4346 C   0  0  0  0  0  0  0  0  0  0  0  0
    0.1548   -2.7381   -0.0785 C   0  0  0  0  0  0  0  0  0  0  0  0
    0.9175   -2.6669    1.2163 C   0  0  0  0  0  0  0  0  0  0  0  0
    1.7432   -1.5650    1.4946 C   0  0  0  0  0  0  0  0  0  0  0  0
    2.4299   -1.4862    2.7066 C   0  0  0  0  0  0  0  0  0  0  0  0
    2.3012   -2.5034    3.6493 C   0  0  0  0  0  0  0  0  0  0  0  0
    1.4900   -3.6038    3.3819 C   0  0  0  0  0  0  0  0  0  0  0  0
    0.8008   -3.6880    2.1714 C   0  0  0  0  0  0  0  0  0  0  0  0
   -2.8448   -1.2710    0.7483 H   0  0  0  0  0  0  0  0  0  0  0  0
   -1.6611   -2.0213    1.8401 H   0  0  0  0  0  0  0  0  0  0  0  0
   -2.4901   -3.0269    0.5946 H   0  0  0  0  0  0  0  0  0  0  0  0
   -0.5645   -0.8407    0.1401 H   0  0  0  0  0  0  0  0  0  0  0  0
   -2.1542   -2.3998   -1.7946 H   0  0  0  0  0  0  0  0  0  0  0  0
   -0.6174   -1.6252   -2.2384 H   0  0  0  0  0  0  0  0  0  0  0  0
   -3.1285   -0.1824   -1.2110 H   0  0  0  0  0  0  0  0  0  0  0  0
   -2.4796   -0.1103   -2.8311 H   0  0  0  0  0  0  0  0  0  0  0  0
   -2.5244    1.5564    0.3098 H   0  0  0  0  0  0  0  0  0  0  0  0
   -1.0589    3.4274    0.9527 H   0  0  0  0  0  0  0  0  0  0  0  0
    0.9582    3.9549   -0.3673 H   0  0  0  0  0  0  0  0  0  0  0  0
    0.0487    0.7127   -3.0586 H   0  0  0  0  0  0  0  0  0  0  0  0
    3.0981    3.2325   -4.8282 H   0  0  0  0  0  0  0  0  0  0  0  0
    3.1866    1.5171   -5.2774 H   0  0  0  0  0  0  0  0  0  0  0  0
    4.0852    2.0815   -3.8538 H   0  0  0  0  0  0  0  0  0  0  0  0
    0.8451   -2.5185   -0.9018 H   0  0  0  0  0  0  0  0  0  0  0  0
   -0.2745   -3.7314   -0.2541 H   0  0  0  0  0  0  0  0  0  0  0  0
    1.8767   -0.7613    0.7726 H   0  0  0  0  0  0  0  0  0  0  0  0
    3.0753   -0.6353    2.9173 H   0  0  0  0  0  0  0  0  0  0  0  0
    2.8428   -2.4434    4.5915 H   0  0  0  0  0  0  0  0  0  0  0  0
    1.4027   -4.4001    4.1189 H   0  0  0  0  0  0  0  0  0  0  0  0
    0.1807   -4.5638    1.9885 H   0  0  0  0  0  0  0  0  0  0  0  0
  1  2  1  0
  2  3  1  0
  3  4  1  0
  4  5  1  0
  5  6  2  0
  6  7  1  0
  7  8  2  0
  8  9  1  0
  9 10  2  0
  9 11  1  0
 11 12  2  0
 11 13  1  0
 13 14  1  0
  2 15  1  0
 15 16  1  0
 16 17  2  0
 17 18  1  0
 18 19  2  0
 19 20  1  0
 20 21  2  0
 10  5  1  0
 21 16  1  0
  1 22  1  0
  1 23  1  0
  1 24  1  0
  2 25  1  0
  3 26  1  0
  3 27  1  0
  4 28  1  0
  4 29  1  0
  6 30  1  0
  7 31  1  0
  8 32  1  0
 10 33  1  0
 14 34  1  0
 14 35  1  0
 14 36  1  0
 15 37  1  0
 15 38  1  0
 17 39  1  0
 18 40  1  0
 19 41  1  0
 20 42  1  0
 21 43  1  0
M  CHG  1   2   1
M  END
>  <modeled_state>  (1) 
protonated

>  <source>  (1) 
verified PRL-8-53 graph; no paroxetine or receptor coordinates

>  <conformer_method>  (1) 
RDKit ETKDGv3 useRandomCoords=True one thread; MMFF94 maxIters=2000

>  <conformer_seed>  (1) 
5201

$$$$
