prl_protonated_c2
     RDKit          3D

 43 44  0  0  0  0  0  0  0  0999 V2000
    3.0718   -0.2792   -1.5095 C   0  0  0  0  0  0  0  0  0  0  0  0
    2.4092    0.4807   -0.3964 N   0  0  0  0  0  0  0  0  0  0  0  0
    1.7779    1.7898   -0.8266 C   0  0  0  0  0  0  0  0  0  0  0  0
    0.7172    1.6776   -1.9334 C   0  0  0  0  0  0  0  0  0  0  0  0
   -0.5699    0.9984   -1.5367 C   0  0  0  0  0  0  0  0  0  0  0  0
   -0.9927   -0.1605   -2.2033 C   0  0  0  0  0  0  0  0  0  0  0  0
   -2.1796   -0.7965   -1.8376 C   0  0  0  0  0  0  0  0  0  0  0  0
   -2.9648   -0.2766   -0.8091 C   0  0  0  0  0  0  0  0  0  0  0  0
   -2.5754    0.8928   -0.1465 C   0  0  0  0  0  0  0  0  0  0  0  0
   -1.3811    1.5305   -0.5196 C   0  0  0  0  0  0  0  0  0  0  0  0
   -3.4560    1.4126    0.9363 C   0  0  0  0  0  0  0  0  0  0  0  0
   -4.5015    0.8788    1.2659 O   0  0  0  0  0  0  0  0  0  0  0  0
   -2.9160    2.5249    1.4948 O   0  0  0  0  0  0  0  0  0  0  0  0
   -3.7189    3.0928    2.5338 C   0  0  0  0  0  0  0  0  0  0  0  0
    1.5241   -0.3916    0.4732 C   0  0  0  0  0  0  0  0  0  0  0  0
    2.3227   -1.2928    1.3781 C   0  0  0  0  0  0  0  0  0  0  0  0
    2.4680   -2.6564    1.0807 C   0  0  0  0  0  0  0  0  0  0  0  0
    3.2350   -3.4807    1.9048 C   0  0  0  0  0  0  0  0  0  0  0  0
    3.8623   -2.9536    3.0313 C   0  0  0  0  0  0  0  0  0  0  0  0
    3.7210   -1.6028    3.3401 C   0  0  0  0  0  0  0  0  0  0  0  0
    2.9554   -0.7739    2.5193 C   0  0  0  0  0  0  0  0  0  0  0  0
    2.3028   -0.7524   -2.1247 H   0  0  0  0  0  0  0  0  0  0  0  0
    3.6650    0.4260   -2.0978 H   0  0  0  0  0  0  0  0  0  0  0  0
    3.7330   -1.0304   -1.0711 H   0  0  0  0  0  0  0  0  0  0  0  0
    3.1780    0.7550    0.2283 H   0  0  0  0  0  0  0  0  0  0  0  0
    2.6074    2.4109   -1.1851 H   0  0  0  0  0  0  0  0  0  0  0  0
    1.3851    2.2667    0.0781 H   0  0  0  0  0  0  0  0  0  0  0  0
    0.4583    2.6927   -2.2632 H   0  0  0  0  0  0  0  0  0  0  0  0
    1.1478    1.1908   -2.8162 H   0  0  0  0  0  0  0  0  0  0  0  0
   -0.4133   -0.5781   -3.0254 H   0  0  0  0  0  0  0  0  0  0  0  0
   -2.5062   -1.6921   -2.3636 H   0  0  0  0  0  0  0  0  0  0  0  0
   -3.8937   -0.7785   -0.5385 H   0  0  0  0  0  0  0  0  0  0  0  0
   -1.0940    2.4570   -0.0258 H   0  0  0  0  0  0  0  0  0  0  0  0
   -3.8246    2.3871    3.3637 H   0  0  0  0  0  0  0  0  0  0  0  0
   -4.6989    3.3863    2.1446 H   0  0  0  0  0  0  0  0  0  0  0  0
   -3.2102    3.9878    2.9024 H   0  0  0  0  0  0  0  0  0  0  0  0
    0.8702   -0.9727   -0.1831 H   0  0  0  0  0  0  0  0  0  0  0  0
    0.9033    0.2692    1.0887 H   0  0  0  0  0  0  0  0  0  0  0  0
    1.9816   -3.0990    0.2131 H   0  0  0  0  0  0  0  0  0  0  0  0
    3.3395   -4.5398    1.6762 H   0  0  0  0  0  0  0  0  0  0  0  0
    4.4537   -3.6004    3.6767 H   0  0  0  0  0  0  0  0  0  0  0  0
    4.2025   -1.2014    4.2300 H   0  0  0  0  0  0  0  0  0  0  0  0
    2.8493    0.2732    2.7966 H   0  0  0  0  0  0  0  0  0  0  0  0
  1  2  1  0
  2  3  1  0
  3  4  1  0
  4  5  1  0
  5  6  2  0
  6  7  1  0
  7  8  2  0
  8  9  1  0
  9 10  2  0
  9 11  1  0
 11 12  2  0
 11 13  1  0
 13 14  1  0
  2 15  1  0
 15 16  1  0
 16 17  2  0
 17 18  1  0
 18 19  2  0
 19 20  1  0
 20 21  2  0
 10  5  1  0
 21 16  1  0
  1 22  1  0
  1 23  1  0
  1 24  1  0
  2 25  1  0
  3 26  1  0
  3 27  1  0
  4 28  1  0
  4 29  1  0
  6 30  1  0
  7 31  1  0
  8 32  1  0
 10 33  1  0
 14 34  1  0
 14 35  1  0
 14 36  1  0
 15 37  1  0
 15 38  1  0
 17 39  1  0
 18 40  1  0
 19 41  1  0
 20 42  1  0
 21 43  1  0
M  CHG  1   2   1
M  END
>  <modeled_state>  (1) 
protonated

>  <source>  (1) 
verified PRL-8-53 graph; no paroxetine or receptor coordinates

>  <conformer_method>  (1) 
RDKit ETKDGv3 useRandomCoords=True one thread; MMFF94 maxIters=2000

>  <conformer_seed>  (1) 
5202

$$$$
