prl_neutral_c1
     RDKit          3D

 42 43  0  0  0  0  0  0  0  0999 V2000
   -1.9012   -0.9681   -0.5968 C   0  0  0  0  0  0  0  0  0  0  0  0
   -0.9530   -0.0206   -0.0014 N   0  0  0  0  0  0  0  0  0  0  0  0
   -0.9093    1.2457   -0.7605 C   0  0  0  0  0  0  0  0  0  0  0  0
   -0.1701    1.1538   -2.1103 C   0  0  0  0  0  0  0  0  0  0  0  0
    1.3222    0.9565   -1.9680 C   0  0  0  0  0  0  0  0  0  0  0  0
    1.8569   -0.3238   -1.7766 C   0  0  0  0  0  0  0  0  0  0  0  0
    3.2327   -0.5056   -1.6317 C   0  0  0  0  0  0  0  0  0  0  0  0
    4.0930    0.5925   -1.6743 C   0  0  0  0  0  0  0  0  0  0  0  0
    3.5769    1.8813   -1.8594 C   0  0  0  0  0  0  0  0  0  0  0  0
    2.1922    2.0564   -2.0040 C   0  0  0  0  0  0  0  0  0  0  0  0
    4.4448    3.0899   -1.9073 C   0  0  0  0  0  0  0  0  0  0  0  0
    4.0164    4.2230   -2.0632 O   0  0  0  0  0  0  0  0  0  0  0  0
    5.7501    2.7512   -1.7562 O   0  0  0  0  0  0  0  0  0  0  0  0
    6.6451    3.8634   -1.7912 C   0  0  0  0  0  0  0  0  0  0  0  0
   -1.2965    0.2452    1.4092 C   0  0  0  0  0  0  0  0  0  0  0  0
   -1.0578   -0.9428    2.3187 C   0  0  0  0  0  0  0  0  0  0  0  0
   -2.0918   -1.4545    3.1155 C   0  0  0  0  0  0  0  0  0  0  0  0
   -1.8605   -2.5392    3.9638 C   0  0  0  0  0  0  0  0  0  0  0  0
   -0.5949   -3.1201    4.0273 C   0  0  0  0  0  0  0  0  0  0  0  0
    0.4420   -2.6178    3.2435 C   0  0  0  0  0  0  0  0  0  0  0  0
    0.2130   -1.5337    2.3954 C   0  0  0  0  0  0  0  0  0  0  0  0
   -1.8975   -1.9244   -0.0631 H   0  0  0  0  0  0  0  0  0  0  0  0
   -2.9261   -0.5795   -0.5961 H   0  0  0  0  0  0  0  0  0  0  0  0
   -1.6278   -1.2085   -1.6287 H   0  0  0  0  0  0  0  0  0  0  0  0
   -1.9290    1.6148   -0.9323 H   0  0  0  0  0  0  0  0  0  0  0  0
   -0.3989    2.0152   -0.1655 H   0  0  0  0  0  0  0  0  0  0  0  0
   -0.3488    2.0858   -2.6632 H   0  0  0  0  0  0  0  0  0  0  0  0
   -0.5850    0.3647   -2.7476 H   0  0  0  0  0  0  0  0  0  0  0  0
    1.1969   -1.1880   -1.7256 H   0  0  0  0  0  0  0  0  0  0  0  0
    3.6326   -1.5050   -1.4800 H   0  0  0  0  0  0  0  0  0  0  0  0
    5.1609    0.4278   -1.5575 H   0  0  0  0  0  0  0  0  0  0  0  0
    1.7912    3.0592   -2.1438 H   0  0  0  0  0  0  0  0  0  0  0  0
    6.4272    4.5571   -0.9730 H   0  0  0  0  0  0  0  0  0  0  0  0
    7.6623    3.4836   -1.6609 H   0  0  0  0  0  0  0  0  0  0  0  0
    6.5868    4.3725   -2.7583 H   0  0  0  0  0  0  0  0  0  0  0  0
   -2.3343    0.5946    1.4928 H   0  0  0  0  0  0  0  0  0  0  0  0
   -0.6672    1.0542    1.8044 H   0  0  0  0  0  0  0  0  0  0  0  0
   -3.0845   -1.0126    3.0793 H   0  0  0  0  0  0  0  0  0  0  0  0
   -2.6683   -2.9309    4.5764 H   0  0  0  0  0  0  0  0  0  0  0  0
   -0.4165   -3.9643    4.6878 H   0  0  0  0  0  0  0  0  0  0  0  0
    1.4293   -3.0691    3.2907 H   0  0  0  0  0  0  0  0  0  0  0  0
    1.0258   -1.1484    1.7823 H   0  0  0  0  0  0  0  0  0  0  0  0
  1  2  1  0
  2  3  1  0
  3  4  1  0
  4  5  1  0
  5  6  2  0
  6  7  1  0
  7  8  2  0
  8  9  1  0
  9 10  2  0
  9 11  1  0
 11 12  2  0
 11 13  1  0
 13 14  1  0
  2 15  1  0
 15 16  1  0
 16 17  2  0
 17 18  1  0
 18 19  2  0
 19 20  1  0
 20 21  2  0
 10  5  1  0
 21 16  1  0
  1 22  1  0
  1 23  1  0
  1 24  1  0
  3 25  1  0
  3 26  1  0
  4 27  1  0
  4 28  1  0
  6 29  1  0
  7 30  1  0
  8 31  1  0
 10 32  1  0
 14 33  1  0
 14 34  1  0
 14 35  1  0
 15 36  1  0
 15 37  1  0
 17 38  1  0
 18 39  1  0
 19 40  1  0
 20 41  1  0
 21 42  1  0
M  END
>  <modeled_state>  (1) 
neutral

>  <source>  (1) 
verified PRL-8-53 graph; no paroxetine or receptor coordinates

>  <conformer_method>  (1) 
RDKit ETKDGv3 useRandomCoords=True one thread; MMFF94 maxIters=2000

>  <conformer_seed>  (1) 
5101

$$$$
