0EU
  CCTOOLS-0919241029

 72 76  0  0  1  0  0  0  0  0999 V2000
    2.4400    2.1720   -0.6920 C   0  0  0  0  0
    1.4150    2.8770   -1.3520 C   0  0  0  0  0
    1.1900    4.2020   -1.0710 C   0  0  0  0  0
    1.9700    4.8610   -0.1330 C   0  0  0  0  0
    2.9760    4.1880    0.5220 C   0  0  0  0  0
    3.2200    2.8390    0.2500 C   0  0  0  0  0
    4.4230    1.7520    0.9320 S   0  0  0  0  0
    3.8790    0.4040   -0.0470 C   0  0  0  0  0
    4.4310   -0.8620   -0.0130 N   0  0  0  0  0
    5.4630   -1.1250    0.8140 C   0  0  0  0  0
    5.9060   -0.2490    1.5300 O   0  0  0  0  0
    6.0020   -2.3600    0.8470 N   0  0  0  0  0
    2.8340    0.7700   -0.8420 C   0  0  0  0  0
    2.1700   -0.1520   -1.7620 C   0  0  0  0  0
    1.1140   -0.8780   -1.3440 N   0  0  0  0  0
    2.5710   -0.2640   -2.9060 O   0  0  0  0  0
    0.4370   -1.8090   -2.2570 C   0  0  0  0  0
   -1.0600   -1.4820   -2.2720 C   0  0  0  0  0
    0.6230   -0.7580    0.0360 C   0  0  0  0  0
   -0.8750   -0.4410   -0.0000 C   0  0  0  0  0
   -1.5980   -1.5040   -0.8400 C   0  0  0  0  0
   -3.0400   -1.2240   -0.8540 N   0  0  0  0  0
   -3.7510   -2.1720   -1.7190 C   0  0  0  0  0
   -5.2210   -1.7610   -1.8340 C   0  0  0  0  0
   -5.8530   -1.7540   -0.4380 C   0  0  0  0  0
   -3.5910   -1.2320    0.5080 C   0  0  0  0  0
   -5.0580   -0.8170    0.4680 C   0  0  0  0  0
   -5.6440   -0.8050    1.8580 C   0  0  0  0  0
   -5.7630   -1.7720    2.5720 O   0  0  0  0  0
   -6.0110    0.4450    2.1820 O   0  0  0  0  0
   -5.1830    0.6330   -0.0380 C   0  0  0  0  0
   -6.1850    1.2410    0.9710 C   0  0  0  0  0
   -7.6160    1.1110    0.4470 C   0  0  0  0  0
   -5.8450    2.7070    1.2440 C   0  0  0  0  0
    7.1220   -2.6460    1.7460 C   0  0  0  0  0
    7.5420   -4.1090    1.5880 C   0  0  0  0  0
    0.8030    2.3720   -2.0850 H   0  0  0  0  0
    0.4020    4.7340   -1.5840 H   0  0  0  0  0
    1.7880    5.9030    0.0830 H   0  0  0  0  0
    3.5800    4.7070    1.2520 H   0  0  0  0  0
    4.0770   -1.5610   -0.5850 H   0  0  0  0  0
    5.6480   -3.0590    0.2750 H   0  0  0  0  0
    0.8450   -1.6980   -3.2610 H   0  0  0  0  0
    0.5840   -2.8320   -1.9110 H   0  0  0  0  0
   -1.2120   -0.4920   -2.7030 H   0  0  0  0  0
   -1.5880   -2.2240   -2.8700 H   0  0  0  0  0
    0.7850   -1.6980    0.5640 H   0  0  0  0  0
    1.1550    0.0460    0.5440 H   0  0  0  0  0
   -1.2730   -0.4440    1.0150 H   0  0  0  0  0
   -1.0290    0.5410   -0.4480 H   0  0  0  0  0
   -1.4230   -2.4860   -0.4010 H   0  0  0  0  0
   -3.2960   -2.1720   -2.7100 H   0  0  0  0  0
   -3.6870   -3.1730   -1.2910 H   0  0  0  0  0
   -5.2870   -0.7630   -2.2680 H   0  0  0  0  0
   -5.7500   -2.4710   -2.4690 H   0  0  0  0  0
   -6.8840   -1.4070   -0.5070 H   0  0  0  0  0
   -5.8340   -2.7630   -0.0250 H   0  0  0  0  0
   -3.5080   -2.2340    0.9270 H   0  0  0  0  0
   -3.0330   -0.5310    1.1300 H   0  0  0  0  0
   -4.2220    1.1460    0.0110 H   0  0  0  0  0
   -5.5860    0.6590   -1.0500 H   0  0  0  0  0
   -8.3130    1.4870    1.1960 H   0  0  0  0  0
   -7.7210    1.6900   -0.4700 H   0  0  0  0  0
   -7.8340    0.0620    0.2420 H   0  0  0  0  0
   -4.8180    2.7830    1.5990 H   0  0  0  0  0
   -5.9550    3.2830    0.3240 H   0  0  0  0  0
   -6.5220    3.1020    2.0020 H   0  0  0  0  0
    7.9630   -1.9980    1.4960 H   0  0  0  0  0
    6.8170   -2.4640    2.7760 H   0  0  0  0  0
    6.7010   -4.7570    1.8380 H   0  0  0  0  0
    7.8470   -4.2910    0.5580 H   0  0  0  0  0
    8.3760   -4.3220    2.2570 H   0  0  0  0  0
  1  2  2  0  0  0
  1  6  1  0  0  0
  1 13  1  0  0  0
  2  3  1  0  0  0
  2 37  1  0  0  0
  3  4  2  0  0  0
  3 38  1  0  0  0
  4  5  1  0  0  0
  4 39  1  0  0  0
  5  6  2  0  0  0
  5 40  1  0  0  0
  6  7  1  0  0  0
  7  8  1  0  0  0
  8  9  1  0  0  0
  8 13  2  0  0  0
  9 10  1  0  0  0
  9 41  1  0  0  0
 10 11  2  0  0  0
 10 12  1  0  0  0
 12 35  1  0  0  0
 12 42  1  0  0  0
 13 14  1  0  0  0
 14 15  1  0  0  0
 14 16  2  0  0  0
 15 17  1  0  0  0
 15 19  1  0  0  0
 17 18  1  0  0  0
 17 43  1  0  0  0
 17 44  1  0  0  0
 18 21  1  0  0  0
 18 45  1  0  0  0
 18 46  1  0  0  0
 19 20  1  0  0  0
 19 47  1  0  0  0
 19 48  1  0  0  0
 20 21  1  0  0  0
 20 49  1  0  0  0
 20 50  1  0  0  0
 21 22  1  0  0  0
 21 51  1  0  0  0
 22 23  1  0  0  0
 22 26  1  0  0  0
 23 24  1  0  0  0
 23 52  1  0  0  0
 23 53  1  0  0  0
 24 25  1  0  0  0
 24 54  1  0  0  0
 24 55  1  0  0  0
 25 27  1  0  0  0
 25 56  1  0  0  0
 25 57  1  0  0  0
 26 27  1  0  0  0
 26 58  1  0  0  0
 26 59  1  0  0  0
 27 28  1  0  0  0
 27 31  1  0  0  0
 28 29  2  0  0  0
 28 30  1  0  0  0
 30 32  1  0  0  0
 31 32  1  0  0  0
 31 60  1  0  0  0
 31 61  1  0  0  0
 32 33  1  0  0  0
 32 34  1  0  0  0
 33 62  1  0  0  0
 33 63  1  0  0  0
 33 64  1  0  0  0
 34 65  1  0  0  0
 34 66  1  0  0  0
 34 67  1  0  0  0
 35 36  1  0  0  0
 35 68  1  0  0  0
 35 69  1  0  0  0
 36 70  1  0  0  0
 36 71  1  0  0  0
 36 72  1  0  0  0
M  END
$$$$
