seed-5303
     RDKit          3D

 42 43  0  0  0  0  0  0  0  0999 V2000
  134.3750  125.0650  118.8230 C   0  0  0  0  0  0  0  0  0  0  0  0
  134.8220  125.1480  120.1760 O   0  0  0  0  0  0  0  0  0  0  0  0
  135.5080  124.0570  120.5970 C   0  0  0  0  0  0  0  0  0  0  0  0
  135.8170  123.0990  119.9050 O   0  0  0  0  0  0  0  0  0  0  0  0
  135.8490  124.1740  122.0420 C   0  0  0  0  0  0  0  0  0  0  0  0
  136.2130  125.3910  122.6320 C   0  0  0  0  0  0  0  0  0  0  0  0
  136.5190  125.4450  123.9930 C   0  0  0  0  0  0  0  0  0  0  0  0
  136.4610  124.2890  124.7730 C   0  0  0  0  0  0  0  0  0  0  0  0
  136.0920  123.0660  124.2000 C   0  0  0  0  0  0  0  0  0  0  0  0
  136.0460  121.8050  125.0340 C   0  0  0  0  0  0  0  0  0  0  0  0
  135.1400  121.9770  126.2680 C   0  0  0  0  0  0  0  0  0  0  0  0
  133.6860  122.0410  126.0270 N   0  0  0  0  0  0  0  0  0  0  0  0
  132.9660  120.9820  126.7320 C   0  0  0  0  0  0  0  0  0  0  0  0
  133.0870  123.3540  126.3180 C   0  0  0  0  0  0  0  0  0  0  0  0
  132.8390  124.1990  125.0870 C   0  0  0  0  0  0  0  0  0  0  0  0
  132.4340  123.5990  123.8850 C   0  0  0  0  0  0  0  0  0  0  0  0
  132.2150  124.3740  122.7440 C   0  0  0  0  0  0  0  0  0  0  0  0
  132.4000  125.7540  122.7930 C   0  0  0  0  0  0  0  0  0  0  0  0
  132.8010  126.3620  123.9810 C   0  0  0  0  0  0  0  0  0  0  0  0
  133.0160  125.5900  125.1230 C   0  0  0  0  0  0  0  0  0  0  0  0
  135.7930  123.0160  122.8300 C   0  0  0  0  0  0  0  0  0  0  0  0
  133.2936  124.8642  118.8058 H   0  0  0  0  0  0  0  0  0  0  0  0
  134.5795  126.0165  118.3103 H   0  0  0  0  0  0  0  0  0  0  0  0
  134.9074  124.2504  118.3103 H   0  0  0  0  0  0  0  0  0  0  0  0
  136.2578  126.3054  122.0222 H   0  0  0  0  0  0  0  0  0  0  0  0
  136.8069  126.4021  124.4524 H   0  0  0  0  0  0  0  0  0  0  0  0
  136.7066  124.3391  125.8441 H   0  0  0  0  0  0  0  0  0  0  0  0
  135.6566  120.9821  124.4166 H   0  0  0  0  0  0  0  0  0  0  0  0
  137.0657  121.5844  125.3826 H   0  0  0  0  0  0  0  0  0  0  0  0
  135.3281  121.1260  126.9391 H   0  0  0  0  0  0  0  0  0  0  0  0
  135.4047  122.9611  126.6821 H   0  0  0  0  0  0  0  0  0  0  0  0
  133.0666  121.1300  127.8173 H   0  0  0  0  0  0  0  0  0  0  0  0
  131.9021  121.0145  126.4546 H   0  0  0  0  0  0  0  0  0  0  0  0
  133.3875  120.0046  126.4546 H   0  0  0  0  0  0  0  0  0  0  0  0
  132.1252  123.1913  126.8264 H   0  0  0  0  0  0  0  0  0  0  0  0
  133.8066  123.9027  126.9434 H   0  0  0  0  0  0  0  0  0  0  0  0
  132.2879  122.5096  123.8410 H   0  0  0  0  0  0  0  0  0  0  0  0
  131.8964  123.8948  121.8065 H   0  0  0  0  0  0  0  0  0  0  0  0
  132.2295  126.3639  121.8936 H   0  0  0  0  0  0  0  0  0  0  0  0
  132.9481  127.4515  124.0184 H   0  0  0  0  0  0  0  0  0  0  0  0
  133.3269  126.0762  126.0595 H   0  0  0  0  0  0  0  0  0  0  0  0
  135.5116  122.0576  122.3693 H   0  0  0  0  0  0  0  0  0  0  0  0
  1  2  1  0
  2  3  1  0
  3  4  2  0
  3  5  1  0
  5  6  1  0
  6  7  2  0
  7  8  1  0
  8  9  2  0
  9 10  1  0
 10 11  1  0
 11 12  1  0
 12 13  1  0
 12 14  1  0
 14 15  1  0
 15 16  2  0
 16 17  1  0
 17 18  2  0
 18 19  1  0
 19 20  2  0
  9 21  1  0
 21  5  2  0
 20 15  1  0
  1 22  1  0
  1 23  1  0
  1 24  1  0
  6 25  1  0
  7 26  1  0
  8 27  1  0
 10 28  1  0
 10 29  1  0
 11 30  1  0
 11 31  1  0
 13 32  1  0
 13 33  1  0
 13 34  1  0
 14 35  1  0
 14 36  1  0
 16 37  1  0
 17 38  1  0
 18 39  1  0
 19 40  1  0
 20 41  1  0
 21 42  1  0
M  END
>  <meeko>  (1) 
{"is_sidechain": [false], "free_energy": -7.263, "intermolecular_energy": -10.235, "internal_energy": -2.574}

$$$$
seed-5303
     RDKit          3D

 42 43  0  0  0  0  0  0  0  0999 V2000
  129.3480  128.0940  127.1340 C   0  0  0  0  0  0  0  0  0  0  0  0
  130.2690  127.0820  127.5410 O   0  0  0  0  0  0  0  0  0  0  0  0
  131.3980  127.0320  126.7920 C   0  0  0  0  0  0  0  0  0  0  0  0
  132.2100  127.9360  126.6650 O   0  0  0  0  0  0  0  0  0  0  0  0
  131.5310  125.7060  126.1280 C   0  0  0  0  0  0  0  0  0  0  0  0
  131.1610  124.5100  126.7560 C   0  0  0  0  0  0  0  0  0  0  0  0
  131.3040  123.2940  126.0870 C   0  0  0  0  0  0  0  0  0  0  0  0
  131.8120  123.2630  124.7870 C   0  0  0  0  0  0  0  0  0  0  0  0
  132.1810  124.4490  124.1420 C   0  0  0  0  0  0  0  0  0  0  0  0
  132.7500  124.4220  122.7420 C   0  0  0  0  0  0  0  0  0  0  0  0
  134.0270  125.2760  122.6340 C   0  0  0  0  0  0  0  0  0  0  0  0
  135.3040  124.5550  122.4780 N   0  0  0  0  0  0  0  0  0  0  0  0
  136.0980  125.0780  121.3680 C   0  0  0  0  0  0  0  0  0  0  0  0
  136.1130  124.4920  123.7070 C   0  0  0  0  0  0  0  0  0  0  0  0
  135.6230  123.4680  124.7090 C   0  0  0  0  0  0  0  0  0  0  0  0
  135.4310  122.1330  124.3220 C   0  0  0  0  0  0  0  0  0  0  0  0
  134.9690  121.1880  125.2410 C   0  0  0  0  0  0  0  0  0  0  0  0
  134.6940  121.5690  126.5530 C   0  0  0  0  0  0  0  0  0  0  0  0
  134.8820  122.8920  126.9500 C   0  0  0  0  0  0  0  0  0  0  0  0
  135.3480  123.8360  126.0340 C   0  0  0  0  0  0  0  0  0  0  0  0
  132.0430  125.6680  124.8230 C   0  0  0  0  0  0  0  0  0  0  0  0
  128.9125  128.5726  128.0235 H   0  0  0  0  0  0  0  0  0  0  0  0
  129.8752  128.8491  126.5324 H   0  0  0  0  0  0  0  0  0  0  0  0
  128.5467  127.6401  126.5324 H   0  0  0  0  0  0  0  0  0  0  0  0
  130.7568  124.5294  127.7789 H   0  0  0  0  0  0  0  0  0  0  0  0
  131.0156  122.3568  126.5854 H   0  0  0  0  0  0  0  0  0  0  0  0
  131.9229  122.3004  124.2664 H   0  0  0  0  0  0  0  0  0  0  0  0
  132.9916  123.3827  122.4746 H   0  0  0  0  0  0  0  0  0  0  0  0
  131.9977  124.8387  122.0561 H   0  0  0  0  0  0  0  0  0  0  0  0
  133.9110  125.9375  121.7629 H   0  0  0  0  0  0  0  0  0  0  0  0
  134.1074  125.7928  123.6017 H   0  0  0  0  0  0  0  0  0  0  0  0
  136.9550  125.6425  121.7642 H   0  0  0  0  0  0  0  0  0  0  0  0
  136.4624  124.2425  120.7522 H   0  0  0  0  0  0  0  0  0  0  0  0
  135.4743  125.7426  120.7522 H   0  0  0  0  0  0  0  0  0  0  0  0
  137.1467  124.2384  123.4292 H   0  0  0  0  0  0  0  0  0  0  0  0
  136.0369  125.4766  124.1916 H   0  0  0  0  0  0  0  0  0  0  0  0
  135.6459  121.8284  123.2871 H   0  0  0  0  0  0  0  0  0  0  0  0
  134.8223  120.1434  124.9292 H   0  0  0  0  0  0  0  0  0  0  0  0
  134.3282  120.8251  127.2760 H   0  0  0  0  0  0  0  0  0  0  0  0
  134.6630  123.1919  127.9854 H   0  0  0  0  0  0  0  0  0  0  0  0
  135.5009  124.8773  126.3539 H   0  0  0  0  0  0  0  0  0  0  0  0
  132.3397  126.6043  124.3277 H   0  0  0  0  0  0  0  0  0  0  0  0
  1  2  1  0
  2  3  1  0
  3  4  2  0
  3  5  1  0
  5  6  1  0
  6  7  2  0
  7  8  1  0
  8  9  2  0
  9 10  1  0
 10 11  1  0
 11 12  1  0
 12 13  1  0
 12 14  1  0
 14 15  1  0
 15 16  2  0
 16 17  1  0
 17 18  2  0
 18 19  1  0
 19 20  2  0
  9 21  1  0
 21  5  2  0
 20 15  1  0
  1 22  1  0
  1 23  1  0
  1 24  1  0
  6 25  1  0
  7 26  1  0
  8 27  1  0
 10 28  1  0
 10 29  1  0
 11 30  1  0
 11 31  1  0
 13 32  1  0
 13 33  1  0
 13 34  1  0
 14 35  1  0
 14 36  1  0
 16 37  1  0
 17 38  1  0
 18 39  1  0
 19 40  1  0
 20 41  1  0
 21 42  1  0
M  END
>  <meeko>  (2) 
{"is_sidechain": [false], "free_energy": -7.147, "intermolecular_energy": -10.451, "internal_energy": -2.195}

$$$$
seed-5303
     RDKit          3D

 42 43  0  0  0  0  0  0  0  0999 V2000
  134.5770  122.7660  116.7680 C   0  0  0  0  0  0  0  0  0  0  0  0
  135.3380  123.3640  117.8180 O   0  0  0  0  0  0  0  0  0  0  0  0
  134.7220  124.4140  118.4150 C   0  0  0  0  0  0  0  0  0  0  0  0
  134.2610  125.3890  117.8430 O   0  0  0  0  0  0  0  0  0  0  0  0
  134.6720  124.2240  119.8920 C   0  0  0  0  0  0  0  0  0  0  0  0
  135.4100  123.2310  120.5480 C   0  0  0  0  0  0  0  0  0  0  0  0
  135.3290  123.1000  121.9350 C   0  0  0  0  0  0  0  0  0  0  0  0
  134.5150  123.9590  122.6760 C   0  0  0  0  0  0  0  0  0  0  0  0
  133.7760  124.9620  122.0360 C   0  0  0  0  0  0  0  0  0  0  0  0
  132.8780  125.8840  122.8290 C   0  0  0  0  0  0  0  0  0  0  0  0
  132.2050  125.1480  124.0030 C   0  0  0  0  0  0  0  0  0  0  0  0
  132.6840  125.4730  125.3600 N   0  0  0  0  0  0  0  0  0  0  0  0
  131.9950  126.6320  125.9210 C   0  0  0  0  0  0  0  0  0  0  0  0
  132.6390  124.3400  126.3000 C   0  0  0  0  0  0  0  0  0  0  0  0
  133.7180  123.3060  126.0620 C   0  0  0  0  0  0  0  0  0  0  0  0
  135.0710  123.6420  126.2180 C   0  0  0  0  0  0  0  0  0  0  0  0
  136.0690  122.6930  125.9890 C   0  0  0  0  0  0  0  0  0  0  0  0
  135.7250  121.4000  125.6010 C   0  0  0  0  0  0  0  0  0  0  0  0
  134.3840  121.0520  125.4430 C   0  0  0  0  0  0  0  0  0  0  0  0
  133.3850  121.9980  125.6760 C   0  0  0  0  0  0  0  0  0  0  0  0
  133.8550  125.0840  120.6410 C   0  0  0  0  0  0  0  0  0  0  0  0
  133.7820  122.1413  117.2013 H   0  0  0  0  0  0  0  0  0  0  0  0
  134.1265  123.5542  116.1469 H   0  0  0  0  0  0  0  0  0  0  0  0
  135.2363  122.1418  116.1469 H   0  0  0  0  0  0  0  0  0  0  0  0
  136.0546  122.5532  119.9691 H   0  0  0  0  0  0  0  0  0  0  0  0
  135.9085  122.3172  122.4463 H   0  0  0  0  0  0  0  0  0  0  0  0
  134.4538  123.8474  123.7686 H   0  0  0  0  0  0  0  0  0  0  0  0
  133.4803  126.7143  123.2263 H   0  0  0  0  0  0  0  0  0  0  0  0
  132.0893  126.2566  122.1588 H   0  0  0  0  0  0  0  0  0  0  0  0
  131.1300  125.3783  123.9665 H   0  0  0  0  0  0  0  0  0  0  0  0
  132.4572  124.0872  123.8574 H   0  0  0  0  0  0  0  0  0  0  0  0
  132.0256  126.5805  127.0194 H   0  0  0  0  0  0  0  0  0  0  0  0
  132.4922  127.5532  125.5831 H   0  0  0  0  0  0  0  0  0  0  0  0
  130.9482  126.6353  125.5831 H   0  0  0  0  0  0  0  0  0  0  0  0
  132.7535  124.7320  127.3214 H   0  0  0  0  0  0  0  0  0  0  0  0
  131.6731  123.8360  126.1484 H   0  0  0  0  0  0  0  0  0  0  0  0
  135.3479  124.6618  126.5234 H   0  0  0  0  0  0  0  0  0  0  0  0
  137.1271  122.9663  126.1149 H   0  0  0  0  0  0  0  0  0  0  0  0
  136.5118  120.6531  125.4191 H   0  0  0  0  0  0  0  0  0  0  0  0
  134.1135  120.0314  125.1346 H   0  0  0  0  0  0  0  0  0  0  0  0
  132.3283  121.7166  125.5563 H   0  0  0  0  0  0  0  0  0  0  0  0
  133.2702  125.8622  120.1288 H   0  0  0  0  0  0  0  0  0  0  0  0
  1  2  1  0
  2  3  1  0
  3  4  2  0
  3  5  1  0
  5  6  1  0
  6  7  2  0
  7  8  1  0
  8  9  2  0
  9 10  1  0
 10 11  1  0
 11 12  1  0
 12 13  1  0
 12 14  1  0
 14 15  1  0
 15 16  2  0
 16 17  1  0
 17 18  2  0
 18 19  1  0
 19 20  2  0
  9 21  1  0
 21  5  2  0
 20 15  1  0
  1 22  1  0
  1 23  1  0
  1 24  1  0
  6 25  1  0
  7 26  1  0
  8 27  1  0
 10 28  1  0
 10 29  1  0
 11 30  1  0
 11 31  1  0
 13 32  1  0
 13 33  1  0
 13 34  1  0
 14 35  1  0
 14 36  1  0
 16 37  1  0
 17 38  1  0
 18 39  1  0
 19 40  1  0
 20 41  1  0
 21 42  1  0
M  END
>  <meeko>  (3) 
{"is_sidechain": [false], "free_energy": -7.113, "intermolecular_energy": -11.28, "internal_energy": -1.318}

$$$$
seed-5303
     RDKit          3D

 42 43  0  0  0  0  0  0  0  0999 V2000
  129.5740  128.2870  126.8410 C   0  0  0  0  0  0  0  0  0  0  0  0
  130.2930  127.0570  126.9240 O   0  0  0  0  0  0  0  0  0  0  0  0
  131.5730  127.1360  126.4830 C   0  0  0  0  0  0  0  0  0  0  0  0
  132.3260  128.0820  126.6500 O   0  0  0  0  0  0  0  0  0  0  0  0
  131.9560  125.8940  125.7560 C   0  0  0  0  0  0  0  0  0  0  0  0
  132.3260  124.7170  126.4190 C   0  0  0  0  0  0  0  0  0  0  0  0
  132.6740  123.5810  125.6870 C   0  0  0  0  0  0  0  0  0  0  0  0
  132.6510  123.6090  124.2920 C   0  0  0  0  0  0  0  0  0  0  0  0
  132.2770  124.7750  123.6130 C   0  0  0  0  0  0  0  0  0  0  0  0
  132.2690  124.8200  122.1020 C   0  0  0  0  0  0  0  0  0  0  0  0
  133.4420  125.6530  121.5540 C   0  0  0  0  0  0  0  0  0  0  0  0
  134.5200  124.9190  120.8640 N   0  0  0  0  0  0  0  0  0  0  0  0
  134.5770  125.2390  119.4390 C   0  0  0  0  0  0  0  0  0  0  0  0
  135.8470  125.0780  121.4820 C   0  0  0  0  0  0  0  0  0  0  0  0
  135.9910  124.3670  122.8100 C   0  0  0  0  0  0  0  0  0  0  0  0
  136.1480  125.1010  123.9950 C   0  0  0  0  0  0  0  0  0  0  0  0
  136.2930  124.4480  125.2210 C   0  0  0  0  0  0  0  0  0  0  0  0
  136.2830  123.0550  125.2740 C   0  0  0  0  0  0  0  0  0  0  0  0
  136.1280  122.3140  124.1040 C   0  0  0  0  0  0  0  0  0  0  0  0
  135.9790  122.9650  122.8790 C   0  0  0  0  0  0  0  0  0  0  0  0
  131.9370  125.9180  124.3540 C   0  0  0  0  0  0  0  0  0  0  0  0
  129.3588  128.6551  127.8550 H   0  0  0  0  0  0  0  0  0  0  0  0
  130.1799  129.0302  126.3020 H   0  0  0  0  0  0  0  0  0  0  0  0
  128.6291  128.1237  126.3020 H   0  0  0  0  0  0  0  0  0  0  0  0
  132.3423  124.6880  127.5185 H   0  0  0  0  0  0  0  0  0  0  0  0
  132.9676  122.6599  126.2117 H   0  0  0  0  0  0  0  0  0  0  0  0
  132.9283  122.7097  123.7224 H   0  0  0  0  0  0  0  0  0  0  0  0
  132.3478  123.7938  121.7138 H   0  0  0  0  0  0  0  0  0  0  0  0
  131.3301  125.2919  121.7766 H   0  0  0  0  0  0  0  0  0  0  0  0
  133.0275  126.3812  120.8413 H   0  0  0  0  0  0  0  0  0  0  0  0
  133.9191  126.0932  122.4420 H   0  0  0  0  0  0  0  0  0  0  0  0
  134.7686  126.3147  119.3122 H   0  0  0  0  0  0  0  0  0  0  0  0
  135.3869  124.6641  118.9662 H   0  0  0  0  0  0  0  0  0  0  0  0
  133.6184  124.9790  118.9662 H   0  0  0  0  0  0  0  0  0  0  0  0
  136.6022  124.6769  120.7901 H   0  0  0  0  0  0  0  0  0  0  0  0
  135.9832  126.1520  121.6770 H   0  0  0  0  0  0  0  0  0  0  0  0
  136.1570  126.2003  123.9583 H   0  0  0  0  0  0  0  0  0  0  0  0
  136.4151  125.0328  126.1447 H   0  0  0  0  0  0  0  0  0  0  0  0
  136.3975  122.5406  126.2396 H   0  0  0  0  0  0  0  0  0  0  0  0
  136.1231  121.2148  124.1463 H   0  0  0  0  0  0  0  0  0  0  0  0
  135.8511  122.3747  121.9596 H   0  0  0  0  0  0  0  0  0  0  0  0
  131.6527  126.8421  123.8293 H   0  0  0  0  0  0  0  0  0  0  0  0
  1  2  1  0
  2  3  1  0
  3  4  2  0
  3  5  1  0
  5  6  1  0
  6  7  2  0
  7  8  1  0
  8  9  2  0
  9 10  1  0
 10 11  1  0
 11 12  1  0
 12 13  1  0
 12 14  1  0
 14 15  1  0
 15 16  2  0
 16 17  1  0
 17 18  2  0
 18 19  1  0
 19 20  2  0
  9 21  1  0
 21  5  2  0
 20 15  1  0
  1 22  1  0
  1 23  1  0
  1 24  1  0
  6 25  1  0
  7 26  1  0
  8 27  1  0
 10 28  1  0
 10 29  1  0
 11 30  1  0
 11 31  1  0
 13 32  1  0
 13 33  1  0
 13 34  1  0
 14 35  1  0
 14 36  1  0
 16 37  1  0
 17 38  1  0
 18 39  1  0
 19 40  1  0
 20 41  1  0
 21 42  1  0
M  END
>  <meeko>  (4) 
{"is_sidechain": [false], "free_energy": -6.921, "intermolecular_energy": -10.35, "internal_energy": -1.977}

$$$$
seed-5303
     RDKit          3D

 42 43  0  0  0  0  0  0  0  0999 V2000
  133.4640  124.0690  117.1670 C   0  0  0  0  0  0  0  0  0  0  0  0
  134.2410  124.8590  118.0670 O   0  0  0  0  0  0  0  0  0  0  0  0
  134.9140  124.1350  118.9950 C   0  0  0  0  0  0  0  0  0  0  0  0
  135.4650  123.0630  118.8000 O   0  0  0  0  0  0  0  0  0  0  0  0
  134.8990  124.8260  120.3140 C   0  0  0  0  0  0  0  0  0  0  0  0
  136.0420  125.4190  120.8650 C   0  0  0  0  0  0  0  0  0  0  0  0
  135.9710  126.0580  122.1040 C   0  0  0  0  0  0  0  0  0  0  0  0
  134.7620  126.1130  122.7980 C   0  0  0  0  0  0  0  0  0  0  0  0
  133.6080  125.5310  122.2590 C   0  0  0  0  0  0  0  0  0  0  0  0
  132.2980  125.5690  123.0140 C   0  0  0  0  0  0  0  0  0  0  0  0
  132.4980  126.0290  124.4700 C   0  0  0  0  0  0  0  0  0  0  0  0
  132.4880  124.9830  125.5100 N   0  0  0  0  0  0  0  0  0  0  0  0
  131.3490  125.1200  126.4150 C   0  0  0  0  0  0  0  0  0  0  0  0
  132.5660  123.6100  124.9820 C   0  0  0  0  0  0  0  0  0  0  0  0
  133.8910  122.9280  125.2480 C   0  0  0  0  0  0  0  0  0  0  0  0
  134.7750  122.6600  124.1920 C   0  0  0  0  0  0  0  0  0  0  0  0
  135.9930  122.0210  124.4320 C   0  0  0  0  0  0  0  0  0  0  0  0
  136.3390  121.6430  125.7280 C   0  0  0  0  0  0  0  0  0  0  0  0
  135.4700  121.9050  126.7860 C   0  0  0  0  0  0  0  0  0  0  0  0
  134.2540  122.5470  126.5490 C   0  0  0  0  0  0  0  0  0  0  0  0
  133.6870  124.8830  121.0170 C   0  0  0  0  0  0  0  0  0  0  0  0
  132.8059  123.3999  117.7408 H   0  0  0  0  0  0  0  0  0  0  0  0
  132.8533  124.7290  116.5333 H   0  0  0  0  0  0  0  0  0  0  0  0
  134.1340  123.4694  116.5333 H   0  0  0  0  0  0  0  0  0  0  0  0
  136.9971  125.3811  120.3206 H   0  0  0  0  0  0  0  0  0  0  0  0
  136.8716  126.5199  122.5348 H   0  0  0  0  0  0  0  0  0  0  0  0
  134.7149  126.6167  123.7748 H   0  0  0  0  0  0  0  0  0  0  0  0
  131.6148  126.2678  122.5092 H   0  0  0  0  0  0  0  0  0  0  0  0
  131.8786  124.5522  123.0282 H   0  0  0  0  0  0  0  0  0  0  0  0
  133.4691  126.5427  124.5253 H   0  0  0  0  0  0  0  0  0  0  0  0
  131.6257  126.6612  124.6923 H   0  0  0  0  0  0  0  0  0  0  0  0
  131.7009  125.0777  127.4563 H   0  0  0  0  0  0  0  0  0  0  0  0
  130.8516  126.0845  126.2350 H   0  0  0  0  0  0  0  0  0  0  0  0
  130.6371  124.3010  126.2350 H   0  0  0  0  0  0  0  0  0  0  0  0
  131.7687  123.0130  125.4488 H   0  0  0  0  0  0  0  0  0  0  0  0
  132.4549  123.6797  123.8899 H   0  0  0  0  0  0  0  0  0  0  0  0
  134.5064  122.9556  123.1671 H   0  0  0  0  0  0  0  0  0  0  0  0
  136.6799  121.8158  123.5977 H   0  0  0  0  0  0  0  0  0  0  0  0
  137.2979  121.1379  125.9161 H   0  0  0  0  0  0  0  0  0  0  0  0
  135.7431  121.6054  127.8086 H   0  0  0  0  0  0  0  0  0  0  0  0
  133.5746  122.7561  127.3885 H   0  0  0  0  0  0  0  0  0  0  0  0
  132.7881  124.4144  120.5899 H   0  0  0  0  0  0  0  0  0  0  0  0
  1  2  1  0
  2  3  1  0
  3  4  2  0
  3  5  1  0
  5  6  1  0
  6  7  2  0
  7  8  1  0
  8  9  2  0
  9 10  1  0
 10 11  1  0
 11 12  1  0
 12 13  1  0
 12 14  1  0
 14 15  1  0
 15 16  2  0
 16 17  1  0
 17 18  2  0
 18 19  1  0
 19 20  2  0
  9 21  1  0
 21  5  2  0
 20 15  1  0
  1 22  1  0
  1 23  1  0
  1 24  1  0
  6 25  1  0
  7 26  1  0
  8 27  1  0
 10 28  1  0
 10 29  1  0
 11 30  1  0
 11 31  1  0
 13 32  1  0
 13 33  1  0
 13 34  1  0
 14 35  1  0
 14 36  1  0
 16 37  1  0
 17 38  1  0
 18 39  1  0
 19 40  1  0
 20 41  1  0
 21 42  1  0
M  END
>  <meeko>  (5) 
{"is_sidechain": [false], "free_energy": -6.903, "intermolecular_energy": -11.054, "internal_energy": -1.247}

$$$$
seed-5303
     RDKit          3D

 42 43  0  0  0  0  0  0  0  0999 V2000
  134.6060  122.6020  117.0760 C   0  0  0  0  0  0  0  0  0  0  0  0
  135.1910  123.2180  118.2230 O   0  0  0  0  0  0  0  0  0  0  0  0
  134.6490  124.4200  118.5380 C   0  0  0  0  0  0  0  0  0  0  0  0
  134.2630  125.2600  117.7390 O   0  0  0  0  0  0  0  0  0  0  0  0
  134.5760  124.5940  120.0150 C   0  0  0  0  0  0  0  0  0  0  0  0
  133.8520  125.6310  120.6160 C   0  0  0  0  0  0  0  0  0  0  0  0
  133.8140  125.7450  122.0070 C   0  0  0  0  0  0  0  0  0  0  0  0
  134.4950  124.8250  122.8060 C   0  0  0  0  0  0  0  0  0  0  0  0
  135.2190  123.7790  122.2220 C   0  0  0  0  0  0  0  0  0  0  0  0
  135.9750  122.7900  123.0800 C   0  0  0  0  0  0  0  0  0  0  0  0
  136.0940  123.2780  124.5350 C   0  0  0  0  0  0  0  0  0  0  0  0
  135.4990  122.4220  125.5800 N   0  0  0  0  0  0  0  0  0  0  0  0
  136.4470  121.4300  126.0820 C   0  0  0  0  0  0  0  0  0  0  0  0
  134.8940  123.1690  126.6950 C   0  0  0  0  0  0  0  0  0  0  0  0
  133.4940  123.6690  126.4080 C   0  0  0  0  0  0  0  0  0  0  0  0
  132.4060  122.7850  126.4310 C   0  0  0  0  0  0  0  0  0  0  0  0
  131.1150  123.2400  126.1550 C   0  0  0  0  0  0  0  0  0  0  0  0
  130.9000  124.5840  125.8530 C   0  0  0  0  0  0  0  0  0  0  0  0
  131.9730  125.4730  125.8270 C   0  0  0  0  0  0  0  0  0  0  0  0
  133.2630  125.0200  126.1060 C   0  0  0  0  0  0  0  0  0  0  0  0
  135.2590  123.6740  120.8230 C   0  0  0  0  0  0  0  0  0  0  0  0
  133.8818  121.8394  117.3986 H   0  0  0  0  0  0  0  0  0  0  0  0
  134.0914  123.3644  116.4727 H   0  0  0  0  0  0  0  0  0  0  0  0
  135.3939  122.1274  116.4727 H   0  0  0  0  0  0  0  0  0  0  0  0
  133.3120  126.3574  119.9909 H   0  0  0  0  0  0  0  0  0  0  0  0
  133.2456  126.5624  122.4748 H   0  0  0  0  0  0  0  0  0  0  0  0
  134.4625  124.9226  123.9012 H   0  0  0  0  0  0  0  0  0  0  0  0
  135.4428  121.8274  123.0686 H   0  0  0  0  0  0  0  0  0  0  0  0
  136.9896  122.6825  122.6688 H   0  0  0  0  0  0  0  0  0  0  0  0
  137.1649  123.3839  124.7629 H   0  0  0  0  0  0  0  0  0  0  0  0
  135.5174  124.2141  124.5702 H   0  0  0  0  0  0  0  0  0  0  0  0
  136.4387  121.4387  127.1819 H   0  0  0  0  0  0  0  0  0  0  0  0
  136.1587  120.4317  125.7210 H   0  0  0  0  0  0  0  0  0  0  0  0
  137.4573  121.6728  125.7210 H   0  0  0  0  0  0  0  0  0  0  0  0
  134.8528  122.5080  127.5733 H   0  0  0  0  0  0  0  0  0  0  0  0
  135.5222  124.0559  126.8643 H   0  0  0  0  0  0  0  0  0  0  0  0
  132.5708  121.7237  126.6686 H   0  0  0  0  0  0  0  0  0  0  0  0
  130.2681  122.5384  126.1758 H   0  0  0  0  0  0  0  0  0  0  0  0
  129.8832  124.9428  125.6352 H   0  0  0  0  0  0  0  0  0  0  0  0
  131.8028  126.5328  125.5863 H   0  0  0  0  0  0  0  0  0  0  0  0
  134.1054  125.7272  126.0891 H   0  0  0  0  0  0  0  0  0  0  0  0
  135.8328  122.8605  120.3551 H   0  0  0  0  0  0  0  0  0  0  0  0
  1  2  1  0
  2  3  1  0
  3  4  2  0
  3  5  1  0
  5  6  1  0
  6  7  2  0
  7  8  1  0
  8  9  2  0
  9 10  1  0
 10 11  1  0
 11 12  1  0
 12 13  1  0
 12 14  1  0
 14 15  1  0
 15 16  2  0
 16 17  1  0
 17 18  2  0
 18 19  1  0
 19 20  2  0
  9 21  1  0
 21  5  2  0
 20 15  1  0
  1 22  1  0
  1 23  1  0
  1 24  1  0
  6 25  1  0
  7 26  1  0
  8 27  1  0
 10 28  1  0
 10 29  1  0
 11 30  1  0
 11 31  1  0
 13 32  1  0
 13 33  1  0
 13 34  1  0
 14 35  1  0
 14 36  1  0
 16 37  1  0
 17 38  1  0
 18 39  1  0
 19 40  1  0
 20 41  1  0
 21 42  1  0
M  END
>  <meeko>  (6) 
{"is_sidechain": [false], "free_energy": -6.732, "intermolecular_energy": -11.072, "internal_energy": -0.989}

$$$$
seed-5303
     RDKit          3D

 42 43  0  0  0  0  0  0  0  0999 V2000
  130.8410  127.9000  127.8750 C   0  0  0  0  0  0  0  0  0  0  0  0
  131.7330  127.1460  127.0550 O   0  0  0  0  0  0  0  0  0  0  0  0
  131.3860  127.1200  125.7440 C   0  0  0  0  0  0  0  0  0  0  0  0
  130.8680  128.0360  125.1260 O   0  0  0  0  0  0  0  0  0  0  0  0
  131.7270  125.8040  125.1350 C   0  0  0  0  0  0  0  0  0  0  0  0
  131.9010  125.6360  123.7560 C   0  0  0  0  0  0  0  0  0  0  0  0
  132.2240  124.3800  123.2390 C   0  0  0  0  0  0  0  0  0  0  0  0
  132.3790  123.2870  124.0930 C   0  0  0  0  0  0  0  0  0  0  0  0
  132.2160  123.4390  125.4750 C   0  0  0  0  0  0  0  0  0  0  0  0
  132.3640  122.2560  126.4050 C   0  0  0  0  0  0  0  0  0  0  0  0
  133.7100  121.5390  126.1980 C   0  0  0  0  0  0  0  0  0  0  0  0
  134.9320  122.3080  126.4980 N   0  0  0  0  0  0  0  0  0  0  0  0
  135.4620  122.0010  127.8250 C   0  0  0  0  0  0  0  0  0  0  0  0
  135.9870  122.1830  125.4790 C   0  0  0  0  0  0  0  0  0  0  0  0
  135.9230  123.2420  124.3990 C   0  0  0  0  0  0  0  0  0  0  0  0
  135.9570  122.8770  123.0450 C   0  0  0  0  0  0  0  0  0  0  0  0
  135.9100  123.8520  122.0470 C   0  0  0  0  0  0  0  0  0  0  0  0
  135.8290  125.2000  122.3920 C   0  0  0  0  0  0  0  0  0  0  0  0
  135.7940  125.5750  123.7340 C   0  0  0  0  0  0  0  0  0  0  0  0
  135.8370  124.6020  124.7330 C   0  0  0  0  0  0  0  0  0  0  0  0
  131.8830  124.7020  125.9880 C   0  0  0  0  0  0  0  0  0  0  0  0
  131.0669  127.7090  128.9345 H   0  0  0  0  0  0  0  0  0  0  0  0
  130.9641  128.9720  127.6613 H   0  0  0  0  0  0  0  0  0  0  0  0
  129.8045  127.6002  127.6613 H   0  0  0  0  0  0  0  0  0  0  0  0
  131.7830  126.4949  123.0789 H   0  0  0  0  0  0  0  0  0  0  0  0
  132.3568  124.2514  122.1546 H   0  0  0  0  0  0  0  0  0  0  0  0
  132.6308  122.3001  123.6776 H   0  0  0  0  0  0  0  0  0  0  0  0
  132.3038  122.6094  127.4449 H   0  0  0  0  0  0  0  0  0  0  0  0
  131.5562  121.5423  126.1859 H   0  0  0  0  0  0  0  0  0  0  0  0
  133.7131  120.6469  126.8416 H   0  0  0  0  0  0  0  0  0  0  0  0
  133.7604  121.3328  125.1187 H   0  0  0  0  0  0  0  0  0  0  0  0
  134.7802  122.3960  128.5925 H   0  0  0  0  0  0  0  0  0  0  0  0
  135.5522  120.9108  127.9406 H   0  0  0  0  0  0  0  0  0  0  0  0
  136.4526  122.4652  127.9406 H   0  0  0  0  0  0  0  0  0  0  0  0
  136.9634  122.2574  125.9800 H   0  0  0  0  0  0  0  0  0  0  0  0
  135.8403  121.2117  124.9839 H   0  0  0  0  0  0  0  0  0  0  0  0
  136.0212  121.8145  122.7675 H   0  0  0  0  0  0  0  0  0  0  0  0
  135.9369  123.5563  120.9878 H   0  0  0  0  0  0  0  0  0  0  0  0
  135.7927  125.9679  121.6052 H   0  0  0  0  0  0  0  0  0  0  0  0
  135.7324  126.6391  124.0057 H   0  0  0  0  0  0  0  0  0  0  0  0
  135.8032  124.9034  125.7904 H   0  0  0  0  0  0  0  0  0  0  0  0
  131.7427  124.8290  127.0716 H   0  0  0  0  0  0  0  0  0  0  0  0
  1  2  1  0
  2  3  1  0
  3  4  2  0
  3  5  1  0
  5  6  1  0
  6  7  2  0
  7  8  1  0
  8  9  2  0
  9 10  1  0
 10 11  1  0
 11 12  1  0
 12 13  1  0
 12 14  1  0
 14 15  1  0
 15 16  2  0
 16 17  1  0
 17 18  2  0
 18 19  1  0
 19 20  2  0
  9 21  1  0
 21  5  2  0
 20 15  1  0
  1 22  1  0
  1 23  1  0
  1 24  1  0
  6 25  1  0
  7 26  1  0
  8 27  1  0
 10 28  1  0
 10 29  1  0
 11 30  1  0
 11 31  1  0
 13 32  1  0
 13 33  1  0
 13 34  1  0
 14 35  1  0
 14 36  1  0
 16 37  1  0
 17 38  1  0
 18 39  1  0
 19 40  1  0
 20 41  1  0
 21 42  1  0
M  END
>  <meeko>  (7) 
{"is_sidechain": [false], "free_energy": -6.654, "intermolecular_energy": -9.796, "internal_energy": -2.155}

$$$$
seed-5303
     RDKit          3D

 42 43  0  0  0  0  0  0  0  0999 V2000
  135.6080  122.9160  120.3960 C   0  0  0  0  0  0  0  0  0  0  0  0
  136.0880  124.2450  120.1890 O   0  0  0  0  0  0  0  0  0  0  0  0
  135.1800  125.2090  120.4800 C   0  0  0  0  0  0  0  0  0  0  0  0
  134.4930  125.8090  119.6680 O   0  0  0  0  0  0  0  0  0  0  0  0
  135.1200  125.4510  121.9480 C   0  0  0  0  0  0  0  0  0  0  0  0
  136.2710  125.5800  122.7370 C   0  0  0  0  0  0  0  0  0  0  0  0
  136.1570  125.8090  124.1090 C   0  0  0  0  0  0  0  0  0  0  0  0
  134.8980  125.9150  124.7010 C   0  0  0  0  0  0  0  0  0  0  0  0
  133.7380  125.7940  123.9270 C   0  0  0  0  0  0  0  0  0  0  0  0
  132.3700  125.8880  124.5650 C   0  0  0  0  0  0  0  0  0  0  0  0
  131.6860  124.5110  124.6420 C   0  0  0  0  0  0  0  0  0  0  0  0
  131.9790  123.6830  125.8280 N   0  0  0  0  0  0  0  0  0  0  0  0
  130.8680  123.6730  126.7770 C   0  0  0  0  0  0  0  0  0  0  0  0
  132.3990  122.3080  125.5110 C   0  0  0  0  0  0  0  0  0  0  0  0
  133.9000  122.1110  125.5190 C   0  0  0  0  0  0  0  0  0  0  0  0
  134.5640  121.7600  126.7040 C   0  0  0  0  0  0  0  0  0  0  0  0
  135.9490  121.5890  126.7170 C   0  0  0  0  0  0  0  0  0  0  0  0
  136.6840  121.7660  125.5470 C   0  0  0  0  0  0  0  0  0  0  0  0
  136.0370  122.1130  124.3620 C   0  0  0  0  0  0  0  0  0  0  0  0
  134.6520  122.2810  124.3460 C   0  0  0  0  0  0  0  0  0  0  0  0
  133.8580  125.5560  122.5500 C   0  0  0  0  0  0  0  0  0  0  0  0
  135.5358  122.7162  121.4753 H   0  0  0  0  0  0  0  0  0  0  0  0
  134.6145  122.8092  119.9361 H   0  0  0  0  0  0  0  0  0  0  0  0
  136.3040  122.1990  119.9361 H   0  0  0  0  0  0  0  0  0  0  0  0
  137.2658  125.5007  122.2743 H   0  0  0  0  0  0  0  0  0  0  0  0
  137.0627  125.9062  124.7257 H   0  0  0  0  0  0  0  0  0  0  0  0
  134.8165  126.0949  125.7831 H   0  0  0  0  0  0  0  0  0  0  0  0
  132.4775  126.2908  125.5829 H   0  0  0  0  0  0  0  0  0  0  0  0
  131.7456  126.5487  123.9456 H   0  0  0  0  0  0  0  0  0  0  0  0
  130.5992  124.6783  124.6143 H   0  0  0  0  0  0  0  0  0  0  0  0
  132.0895  123.9435  123.7905 H   0  0  0  0  0  0  0  0  0  0  0  0
  131.2627  123.6766  127.8037 H   0  0  0  0  0  0  0  0  0  0  0  0
  130.2443  124.5656  126.6208 H   0  0  0  0  0  0  0  0  0  0  0  0
  130.2605  122.7693  126.6208 H   0  0  0  0  0  0  0  0  0  0  0  0
  131.9561  121.6297  126.2552 H   0  0  0  0  0  0  0  0  0  0  0  0
  132.0531  122.0947  124.4888 H   0  0  0  0  0  0  0  0  0  0  0  0
  133.9882  121.6184  127.6305 H   0  0  0  0  0  0  0  0  0  0  0  0
  136.4604  121.3144  127.6514 H   0  0  0  0  0  0  0  0  0  0  0  0
  137.7757  121.6319  125.5582 H   0  0  0  0  0  0  0  0  0  0  0  0
  136.6186  122.2544  123.4391 H   0  0  0  0  0  0  0  0  0  0  0  0
  134.1455  122.5487  123.4070 H   0  0  0  0  0  0  0  0  0  0  0  0
  132.9518  125.4505  121.9354 H   0  0  0  0  0  0  0  0  0  0  0  0
  1  2  1  0
  2  3  1  0
  3  4  2  0
  3  5  1  0
  5  6  1  0
  6  7  2  0
  7  8  1  0
  8  9  2  0
  9 10  1  0
 10 11  1  0
 11 12  1  0
 12 13  1  0
 12 14  1  0
 14 15  1  0
 15 16  2  0
 16 17  1  0
 17 18  2  0
 18 19  1  0
 19 20  2  0
  9 21  1  0
 21  5  2  0
 20 15  1  0
  1 22  1  0
  1 23  1  0
  1 24  1  0
  6 25  1  0
  7 26  1  0
  8 27  1  0
 10 28  1  0
 10 29  1  0
 11 30  1  0
 11 31  1  0
 13 32  1  0
 13 33  1  0
 13 34  1  0
 14 35  1  0
 14 36  1  0
 16 37  1  0
 17 38  1  0
 18 39  1  0
 19 40  1  0
 20 41  1  0
 21 42  1  0
M  END
>  <meeko>  (8) 
{"is_sidechain": [false], "free_energy": -6.654, "intermolecular_energy": -10.154, "internal_energy": -1.796}

$$$$
seed-5303
     RDKit          3D

 42 43  0  0  0  0  0  0  0  0999 V2000
  127.6770  123.5710  128.6280 C   0  0  0  0  0  0  0  0  0  0  0  0
  128.6320  124.4320  128.0070 O   0  0  0  0  0  0  0  0  0  0  0  0
  128.9850  124.0500  126.7550 C   0  0  0  0  0  0  0  0  0  0  0  0
  128.2240  123.6370  125.8950 O   0  0  0  0  0  0  0  0  0  0  0  0
  130.4530  124.2030  126.5520 C   0  0  0  0  0  0  0  0  0  0  0  0
  131.0560  125.4470  126.3290 C   0  0  0  0  0  0  0  0  0  0  0  0
  132.4370  125.5340  126.1480 C   0  0  0  0  0  0  0  0  0  0  0  0
  133.2250  124.3830  126.1940 C   0  0  0  0  0  0  0  0  0  0  0  0
  132.6400  123.1310  126.4220 C   0  0  0  0  0  0  0  0  0  0  0  0
  133.4840  121.8780  126.4530 C   0  0  0  0  0  0  0  0  0  0  0  0
  134.8950  122.1590  127.0000 C   0  0  0  0  0  0  0  0  0  0  0  0
  136.0210  122.0100  126.0580 N   0  0  0  0  0  0  0  0  0  0  0  0
  137.0060  121.0390  126.5300 C   0  0  0  0  0  0  0  0  0  0  0  0
  135.6120  121.7010  124.6770 C   0  0  0  0  0  0  0  0  0  0  0  0
  135.7270  122.8740  123.7290 C   0  0  0  0  0  0  0  0  0  0  0  0
  135.3760  122.7320  122.3780 C   0  0  0  0  0  0  0  0  0  0  0  0
  135.4910  123.8090  121.4970 C   0  0  0  0  0  0  0  0  0  0  0  0
  135.9590  125.0390  121.9580 C   0  0  0  0  0  0  0  0  0  0  0  0
  136.3110  125.1930  123.2980 C   0  0  0  0  0  0  0  0  0  0  0  0
  136.1920  124.1190  124.1800 C   0  0  0  0  0  0  0  0  0  0  0  0
  131.2490  123.0490  126.5950 C   0  0  0  0  0  0  0  0  0  0  0  0
  127.7668  123.6519  129.7213 H   0  0  0  0  0  0  0  0  0  0  0  0
  126.6629  123.8660  128.3205 H   0  0  0  0  0  0  0  0  0  0  0  0
  127.8657  122.5318  128.3205 H   0  0  0  0  0  0  0  0  0  0  0  0
  130.4398  126.3576  126.2964 H   0  0  0  0  0  0  0  0  0  0  0  0
  132.9059  126.5127  125.9685 H   0  0  0  0  0  0  0  0  0  0  0  0
  134.3129  124.4596  126.0502 H   0  0  0  0  0  0  0  0  0  0  0  0
  132.9934  121.1329  127.0966 H   0  0  0  0  0  0  0  0  0  0  0  0
  133.5823  121.5037  125.4233 H   0  0  0  0  0  0  0  0  0  0  0  0
  134.9071  123.1947  127.3703 H   0  0  0  0  0  0  0  0  0  0  0  0
  135.0618  121.3896  127.7683 H   0  0  0  0  0  0  0  0  0  0  0  0
  137.0146  121.0305  127.6299 H   0  0  0  0  0  0  0  0  0  0  0  0
  136.7419  120.0382  126.1577 H   0  0  0  0  0  0  0  0  0  0  0  0
  138.0029  121.3174  126.1577 H   0  0  0  0  0  0  0  0  0  0  0  0
  136.2491  120.8872  124.3005 H   0  0  0  0  0  0  0  0  0  0  0  0
  134.5488  121.4213  124.7129 H   0  0  0  0  0  0  0  0  0  0  0  0
  135.0069  121.7635  122.0096 H   0  0  0  0  0  0  0  0  0  0  0  0
  135.2126  123.6873  120.4398 H   0  0  0  0  0  0  0  0  0  0  0  0
  136.0504  125.8878  121.2643 H   0  0  0  0  0  0  0  0  0  0  0  0
  136.6831  126.1627  123.6603 H   0  0  0  0  0  0  0  0  0  0  0  0
  136.4648  124.2489  125.2377 H   0  0  0  0  0  0  0  0  0  0  0  0
  130.7786  122.0695  126.7660 H   0  0  0  0  0  0  0  0  0  0  0  0
  1  2  1  0
  2  3  1  0
  3  4  2  0
  3  5  1  0
  5  6  1  0
  6  7  2  0
  7  8  1  0
  8  9  2  0
  9 10  1  0
 10 11  1  0
 11 12  1  0
 12 13  1  0
 12 14  1  0
 14 15  1  0
 15 16  2  0
 16 17  1  0
 17 18  2  0
 18 19  1  0
 19 20  2  0
  9 21  1  0
 21  5  2  0
 20 15  1  0
  1 22  1  0
  1 23  1  0
  1 24  1  0
  6 25  1  0
  7 26  1  0
  8 27  1  0
 10 28  1  0
 10 29  1  0
 11 30  1  0
 11 31  1  0
 13 32  1  0
 13 33  1  0
 13 34  1  0
 14 35  1  0
 14 36  1  0
 16 37  1  0
 17 38  1  0
 18 39  1  0
 19 40  1  0
 20 41  1  0
 21 42  1  0
M  END
>  <meeko>  (9) 
{"is_sidechain": [false], "free_energy": -6.645, "intermolecular_energy": -10.893, "internal_energy": -1.045}

$$$$
seed-5303
     RDKit          3D

 42 43  0  0  0  0  0  0  0  0999 V2000
  136.6100  127.7830  125.3750 C   0  0  0  0  0  0  0  0  0  0  0  0
  137.1500  126.8400  124.4500 O   0  0  0  0  0  0  0  0  0  0  0  0
  137.0830  125.5530  124.8730 C   0  0  0  0  0  0  0  0  0  0  0  0
  137.7930  125.0460  125.7270 O   0  0  0  0  0  0  0  0  0  0  0  0
  136.0080  124.8180  124.1520 C   0  0  0  0  0  0  0  0  0  0  0  0
  136.2790  123.7680  123.2650 C   0  0  0  0  0  0  0  0  0  0  0  0
  135.2320  123.1090  122.6180 C   0  0  0  0  0  0  0  0  0  0  0  0
  133.9100  123.4910  122.8540 C   0  0  0  0  0  0  0  0  0  0  0  0
  133.6210  124.5340  123.7420 C   0  0  0  0  0  0  0  0  0  0  0  0
  132.1930  124.9650  123.9870 C   0  0  0  0  0  0  0  0  0  0  0  0
  131.3820  123.8630  124.6920 C   0  0  0  0  0  0  0  0  0  0  0  0
  131.5990  123.6940  126.1410 N   0  0  0  0  0  0  0  0  0  0  0  0
  130.4510  124.1460  126.9240 C   0  0  0  0  0  0  0  0  0  0  0  0
  131.9880  122.3300  126.5360 C   0  0  0  0  0  0  0  0  0  0  0  0
  133.4720  122.0600  126.4190 C   0  0  0  0  0  0  0  0  0  0  0  0
  133.9460  121.0680  125.5480 C   0  0  0  0  0  0  0  0  0  0  0  0
  135.3140  120.8080  125.4450 C   0  0  0  0  0  0  0  0  0  0  0  0
  136.2210  121.5360  126.2130 C   0  0  0  0  0  0  0  0  0  0  0  0
  135.7630  122.5250  127.0810 C   0  0  0  0  0  0  0  0  0  0  0  0
  134.3970  122.7890  127.1820 C   0  0  0  0  0  0  0  0  0  0  0  0
  134.6780  125.1970  124.3830 C   0  0  0  0  0  0  0  0  0  0  0  0
  136.8053  127.4419  126.4024 H   0  0  0  0  0  0  0  0  0  0  0  0
  137.0836  128.7633  125.2178 H   0  0  0  0  0  0  0  0  0  0  0  0
  135.5248  127.8707  125.2178 H   0  0  0  0  0  0  0  0  0  0  0  0
  137.3189  123.4621  123.0779 H   0  0  0  0  0  0  0  0  0  0  0  0
  135.4492  122.2867  121.9205 H   0  0  0  0  0  0  0  0  0  0  0  0
  133.0902  122.9690  122.3388 H   0  0  0  0  0  0  0  0  0  0  0  0
  132.1952  125.8659  124.6182 H   0  0  0  0  0  0  0  0  0  0  0  0
  131.7231  125.1688  123.0135 H   0  0  0  0  0  0  0  0  0  0  0  0
  130.3159  124.0872  124.5402 H   0  0  0  0  0  0  0  0  0  0  0  0
  131.7272  122.9214  124.2401 H   0  0  0  0  0  0  0  0  0  0  0  0
  130.6800  124.0558  127.9961 H   0  0  0  0  0  0  0  0  0  0  0  0
  130.2334  125.1969  126.6827 H   0  0  0  0  0  0  0  0  0  0  0  0
  129.5754  123.5255  126.6827 H   0  0  0  0  0  0  0  0  0  0  0  0
  131.6885  122.1734  127.5828 H   0  0  0  0  0  0  0  0  0  0  0  0
  131.4815  121.6398  125.8453 H   0  0  0  0  0  0  0  0  0  0  0  0
  133.2339  120.4899  124.9408 H   0  0  0  0  0  0  0  0  0  0  0  0
  135.6757  120.0288  124.7579 H   0  0  0  0  0  0  0  0  0  0  0  0
  137.2986  121.3298  126.1339 H   0  0  0  0  0  0  0  0  0  0  0  0
  136.4796  123.0984  127.6874 H   0  0  0  0  0  0  0  0  0  0  0  0
  134.0421  123.5748  127.8651 H   0  0  0  0  0  0  0  0  0  0  0  0
  134.4609  126.0240  125.0751 H   0  0  0  0  0  0  0  0  0  0  0  0
  1  2  1  0
  2  3  1  0
  3  4  2  0
  3  5  1  0
  5  6  1  0
  6  7  2  0
  7  8  1  0
  8  9  2  0
  9 10  1  0
 10 11  1  0
 11 12  1  0
 12 13  1  0
 12 14  1  0
 14 15  1  0
 15 16  2  0
 16 17  1  0
 17 18  2  0
 18 19  1  0
 19 20  2  0
  9 21  1  0
 21  5  2  0
 20 15  1  0
  1 22  1  0
  1 23  1  0
  1 24  1  0
  6 25  1  0
  7 26  1  0
  8 27  1  0
 10 28  1  0
 10 29  1  0
 11 30  1  0
 11 31  1  0
 13 32  1  0
 13 33  1  0
 13 34  1  0
 14 35  1  0
 14 36  1  0
 16 37  1  0
 17 38  1  0
 18 39  1  0
 19 40  1  0
 20 41  1  0
 21 42  1  0
M  END
>  <meeko>  (10) 
{"is_sidechain": [false], "free_energy": -6.625, "intermolecular_energy": -9.481, "internal_energy": -2.429}

$$$$
seed-5303
     RDKit          3D

 42 43  0  0  0  0  0  0  0  0999 V2000
  136.5180  124.1610  125.2700 C   0  0  0  0  0  0  0  0  0  0  0  0
  136.7850  123.0970  124.3570 O   0  0  0  0  0  0  0  0  0  0  0  0
  135.6700  122.5260  123.8370 C   0  0  0  0  0  0  0  0  0  0  0  0
  135.2440  121.4150  124.1120 O   0  0  0  0  0  0  0  0  0  0  0  0
  135.0120  123.4440  122.8670 C   0  0  0  0  0  0  0  0  0  0  0  0
  135.4100  123.5340  121.5270 C   0  0  0  0  0  0  0  0  0  0  0  0
  134.7560  124.4100  120.6590 C   0  0  0  0  0  0  0  0  0  0  0  0
  133.6990  125.1970  121.1210 C   0  0  0  0  0  0  0  0  0  0  0  0
  133.2840  125.1150  122.4550 C   0  0  0  0  0  0  0  0  0  0  0  0
  132.1530  125.9780  122.9670 C   0  0  0  0  0  0  0  0  0  0  0  0
  131.7510  125.5910  124.4020 C   0  0  0  0  0  0  0  0  0  0  0  0
  130.3810  125.9330  124.8280 N   0  0  0  0  0  0  0  0  0  0  0  0
  129.9810  125.2010  126.0280 C   0  0  0  0  0  0  0  0  0  0  0  0
  130.1480  127.3760  125.0030 C   0  0  0  0  0  0  0  0  0  0  0  0
  129.2590  127.9850  123.9390 C   0  0  0  0  0  0  0  0  0  0  0  0
  128.2130  127.2390  123.3770 C   0  0  0  0  0  0  0  0  0  0  0  0
  127.3980  127.7920  122.3880 C   0  0  0  0  0  0  0  0  0  0  0  0
  127.6210  129.0970  121.9510 C   0  0  0  0  0  0  0  0  0  0  0  0
  128.6570  129.8490  122.5020 C   0  0  0  0  0  0  0  0  0  0  0  0
  129.4700  129.2980  123.4930 C   0  0  0  0  0  0  0  0  0  0  0  0
  133.9510  124.2380  123.3250 C   0  0  0  0  0  0  0  0  0  0  0  0
  136.6109  123.7909  126.3017 H   0  0  0  0  0  0  0  0  0  0  0  0
  137.2398  124.9747  125.1060 H   0  0  0  0  0  0  0  0  0  0  0  0
  135.4975  124.5375  125.1060 H   0  0  0  0  0  0  0  0  0  0  0  0
  136.2396  122.9131  121.1580 H   0  0  0  0  0  0  0  0  0  0  0  0
  135.0741  124.4806  119.6084 H   0  0  0  0  0  0  0  0  0  0  0  0
  133.1891  125.8861  120.4317 H   0  0  0  0  0  0  0  0  0  0  0  0
  132.4740  127.0301  122.9574 H   0  0  0  0  0  0  0  0  0  0  0  0
  131.2816  125.8277  122.3127 H   0  0  0  0  0  0  0  0  0  0  0  0
  131.8657  124.5011  124.4964 H   0  0  0  0  0  0  0  0  0  0  0  0
  132.4096  126.1843  125.0534 H   0  0  0  0  0  0  0  0  0  0  0  0
  130.2890  125.7646  126.9210 H   0  0  0  0  0  0  0  0  0  0  0  0
  128.8883  125.0744  126.0331 H   0  0  0  0  0  0  0  0  0  0  0  0
  130.4646  124.2130  126.0331 H   0  0  0  0  0  0  0  0  0  0  0  0
  129.6743  127.5345  125.9831 H   0  0  0  0  0  0  0  0  0  0  0  0
  131.1273  127.8706  124.9238 H   0  0  0  0  0  0  0  0  0  0  0  0
  128.0332  126.2090  123.7186 H   0  0  0  0  0  0  0  0  0  0  0  0
  126.5801  127.1984  121.9536 H   0  0  0  0  0  0  0  0  0  0  0  0
  126.9792  129.5331  121.1713 H   0  0  0  0  0  0  0  0  0  0  0  0
  128.8339  130.8778  122.1553 H   0  0  0  0  0  0  0  0  0  0  0  0
  130.2829  129.8980  123.9280 H   0  0  0  0  0  0  0  0  0  0  0  0
  133.6378  124.1731  124.3775 H   0  0  0  0  0  0  0  0  0  0  0  0
  1  2  1  0
  2  3  1  0
  3  4  2  0
  3  5  1  0
  5  6  1  0
  6  7  2  0
  7  8  1  0
  8  9  2  0
  9 10  1  0
 10 11  1  0
 11 12  1  0
 12 13  1  0
 12 14  1  0
 14 15  1  0
 15 16  2  0
 16 17  1  0
 17 18  2  0
 18 19  1  0
 19 20  2  0
  9 21  1  0
 21  5  2  0
 20 15  1  0
  1 22  1  0
  1 23  1  0
  1 24  1  0
  6 25  1  0
  7 26  1  0
  8 27  1  0
 10 28  1  0
 10 29  1  0
 11 30  1  0
 11 31  1  0
 13 32  1  0
 13 33  1  0
 13 34  1  0
 14 35  1  0
 14 36  1  0
 16 37  1  0
 17 38  1  0
 18 39  1  0
 19 40  1  0
 20 41  1  0
 21 42  1  0
M  END
>  <meeko>  (11) 
{"is_sidechain": [false], "free_energy": -6.476, "intermolecular_energy": -11.324, "internal_energy": -0.376}

$$$$
seed-5303
     RDKit          3D

 42 43  0  0  0  0  0  0  0  0999 V2000
  132.8420  124.0890  116.6350 C   0  0  0  0  0  0  0  0  0  0  0  0
  133.8640  124.7340  117.3950 O   0  0  0  0  0  0  0  0  0  0  0  0
  134.7900  123.8840  117.9050 C   0  0  0  0  0  0  0  0  0  0  0  0
  135.4730  123.1040  117.2600 O   0  0  0  0  0  0  0  0  0  0  0  0
  134.8760  124.0250  119.3850 C   0  0  0  0  0  0  0  0  0  0  0  0
  135.7330  123.2410  120.1670 C   0  0  0  0  0  0  0  0  0  0  0  0
  135.7770  123.4170  121.5510 C   0  0  0  0  0  0  0  0  0  0  0  0
  134.9700  124.3780  122.1620 C   0  0  0  0  0  0  0  0  0  0  0  0
  134.1120  125.1760  121.3950 C   0  0  0  0  0  0  0  0  0  0  0  0
  133.2210  126.2050  122.0520 C   0  0  0  0  0  0  0  0  0  0  0  0
  132.9720  125.8740  123.5350 C   0  0  0  0  0  0  0  0  0  0  0  0
  131.6420  125.3440  123.8880 N   0  0  0  0  0  0  0  0  0  0  0  0
  131.7130  123.9710  124.3840 C   0  0  0  0  0  0  0  0  0  0  0  0
  130.8860  126.1930  124.8250 C   0  0  0  0  0  0  0  0  0  0  0  0
  129.9710  127.1880  124.1450 C   0  0  0  0  0  0  0  0  0  0  0  0
  130.3100  128.5480  124.1000 C   0  0  0  0  0  0  0  0  0  0  0  0
  129.4630  129.4710  123.4840 C   0  0  0  0  0  0  0  0  0  0  0  0
  128.2680  129.0430  122.9070 C   0  0  0  0  0  0  0  0  0  0  0  0
  127.9200  127.6940  122.9430 C   0  0  0  0  0  0  0  0  0  0  0  0
  128.7680  126.7700  123.5550 C   0  0  0  0  0  0  0  0  0  0  0  0
  134.0670  124.9880  120.0050 C   0  0  0  0  0  0  0  0  0  0  0  0
  132.1126  123.6287  117.3177 H   0  0  0  0  0  0  0  0  0  0  0  0
  132.3336  124.8302  116.0008 H   0  0  0  0  0  0  0  0  0  0  0  0
  133.2923  123.3111  116.0008 H   0  0  0  0  0  0  0  0  0  0  0  0
  136.3731  122.4845  119.6895 H   0  0  0  0  0  0  0  0  0  0  0  0
  136.4494  122.7967  122.1618 H   0  0  0  0  0  0  0  0  0  0  0  0
  135.0082  124.5095  123.2534 H   0  0  0  0  0  0  0  0  0  0  0  0
  133.7029  127.1913  121.9823 H   0  0  0  0  0  0  0  0  0  0  0  0
  132.2519  126.2040  121.5315 H   0  0  0  0  0  0  0  0  0  0  0  0
  133.7188  125.1253  123.8379 H   0  0  0  0  0  0  0  0  0  0  0  0
  133.0437  126.8384  124.0591 H   0  0  0  0  0  0  0  0  0  0  0  0
  131.7126  123.9780  125.4840 H   0  0  0  0  0  0  0  0  0  0  0  0
  130.8430  123.4044  124.0207 H   0  0  0  0  0  0  0  0  0  0  0  0
  132.6368  123.4972  124.0207 H   0  0  0  0  0  0  0  0  0  0  0  0
  130.2745  125.5419  125.4669 H   0  0  0  0  0  0  0  0  0  0  0  0
  131.6238  126.7749  125.3969 H   0  0  0  0  0  0  0  0  0  0  0  0
  131.2516  128.8905  124.5541 H   0  0  0  0  0  0  0  0  0  0  0  0
  129.7382  130.5356  123.4538 H   0  0  0  0  0  0  0  0  0  0  0  0
  127.5996  129.7704  122.4232 H   0  0  0  0  0  0  0  0  0  0  0  0
  126.9764  127.3574  122.4888 H   0  0  0  0  0  0  0  0  0  0  0  0
  128.4914  125.7055  123.5752 H   0  0  0  0  0  0  0  0  0  0  0  0
  133.3893  125.6032  119.3948 H   0  0  0  0  0  0  0  0  0  0  0  0
  1  2  1  0
  2  3  1  0
  3  4  2  0
  3  5  1  0
  5  6  1  0
  6  7  2  0
  7  8  1  0
  8  9  2  0
  9 10  1  0
 10 11  1  0
 11 12  1  0
 12 13  1  0
 12 14  1  0
 14 15  1  0
 15 16  2  0
 16 17  1  0
 17 18  2  0
 18 19  1  0
 19 20  2  0
  9 21  1  0
 21  5  2  0
 20 15  1  0
  1 22  1  0
  1 23  1  0
  1 24  1  0
  6 25  1  0
  7 26  1  0
  8 27  1  0
 10 28  1  0
 10 29  1  0
 11 30  1  0
 11 31  1  0
 13 32  1  0
 13 33  1  0
 13 34  1  0
 14 35  1  0
 14 36  1  0
 16 37  1  0
 17 38  1  0
 18 39  1  0
 19 40  1  0
 20 41  1  0
 21 42  1  0
M  END
>  <meeko>  (12) 
{"is_sidechain": [false], "free_energy": -6.449, "intermolecular_energy": -10.994, "internal_energy": -0.668}

$$$$
seed-5303
     RDKit          3D

 42 43  0  0  0  0  0  0  0  0999 V2000
  131.4380  128.5990  128.6630 C   0  0  0  0  0  0  0  0  0  0  0  0
  131.9280  128.0310  127.4490 O   0  0  0  0  0  0  0  0  0  0  0  0
  130.9550  127.5650  126.6270 C   0  0  0  0  0  0  0  0  0  0  0  0
  130.2960  128.2380  125.8510 O   0  0  0  0  0  0  0  0  0  0  0  0
  130.7880  126.0940  126.7900 C   0  0  0  0  0  0  0  0  0  0  0  0
  129.6760  125.5290  127.4270 C   0  0  0  0  0  0  0  0  0  0  0  0
  129.5680  124.1430  127.5500 C   0  0  0  0  0  0  0  0  0  0  0  0
  130.5640  123.3130  127.0350 C   0  0  0  0  0  0  0  0  0  0  0  0
  131.6800  123.8600  126.3890 C   0  0  0  0  0  0  0  0  0  0  0  0
  132.7730  122.9680  125.8460 C   0  0  0  0  0  0  0  0  0  0  0  0
  134.1590  123.6250  125.9820 C   0  0  0  0  0  0  0  0  0  0  0  0
  134.7990  124.0990  124.7400 N   0  0  0  0  0  0  0  0  0  0  0  0
  136.2000  124.4590  124.9490 C   0  0  0  0  0  0  0  0  0  0  0  0
  134.6680  123.1710  123.6040 C   0  0  0  0  0  0  0  0  0  0  0  0
  134.6100  123.8580  122.2570 C   0  0  0  0  0  0  0  0  0  0  0  0
  133.8010  124.9890  122.0720 C   0  0  0  0  0  0  0  0  0  0  0  0
  133.7360  125.6190  120.8270 C   0  0  0  0  0  0  0  0  0  0  0  0
  134.4790  125.1250  119.7570 C   0  0  0  0  0  0  0  0  0  0  0  0
  135.2880  124.0030  119.9280 C   0  0  0  0  0  0  0  0  0  0  0  0
  135.3560  123.3740  121.1720 C   0  0  0  0  0  0  0  0  0  0  0  0
  131.7870  125.2550  126.2760 C   0  0  0  0  0  0  0  0  0  0  0  0
  131.8884  128.0769  129.5201 H   0  0  0  0  0  0  0  0  0  0  0  0
  131.7040  129.6656  128.7023 H   0  0  0  0  0  0  0  0  0  0  0  0
  130.3439  128.4923  128.7023 H   0  0  0  0  0  0  0  0  0  0  0  0
  128.8860  126.1791  127.8312 H   0  0  0  0  0  0  0  0  0  0  0  0
  128.6948  123.7037  128.0546 H   0  0  0  0  0  0  0  0  0  0  0  0
  130.4723  122.2216  127.1369 H   0  0  0  0  0  0  0  0  0  0  0  0
  132.7707  122.0201  126.4041 H   0  0  0  0  0  0  0  0  0  0  0  0
  132.5772  122.7946  124.7775 H   0  0  0  0  0  0  0  0  0  0  0  0
  134.0517  124.4910  126.6517 H   0  0  0  0  0  0  0  0  0  0  0  0
  134.8179  122.8282  126.3574 H   0  0  0  0  0  0  0  0  0  0  0  0
  136.4078  124.5124  126.0279 H   0  0  0  0  0  0  0  0  0  0  0  0
  136.8468  123.6979  124.4882 H   0  0  0  0  0  0  0  0  0  0  0  0
  136.3998  125.4377  124.4882 H   0  0  0  0  0  0  0  0  0  0  0  0
  135.5331  122.4917  123.6097 H   0  0  0  0  0  0  0  0  0  0  0  0
  133.7138  122.6392  123.7335 H   0  0  0  0  0  0  0  0  0  0  0  0
  133.2131  125.3829  122.9141 H   0  0  0  0  0  0  0  0  0  0  0  0
  133.0983  126.5050  120.6914 H   0  0  0  0  0  0  0  0  0  0  0  0
  134.4271  125.6209  118.7765 H   0  0  0  0  0  0  0  0  0  0  0  0
  135.8731  123.6131  119.0821 H   0  0  0  0  0  0  0  0  0  0  0  0
  135.9997  122.4917  121.3028 H   0  0  0  0  0  0  0  0  0  0  0  0
  132.6641  125.6948  125.7788 H   0  0  0  0  0  0  0  0  0  0  0  0
  1  2  1  0
  2  3  1  0
  3  4  2  0
  3  5  1  0
  5  6  1  0
  6  7  2  0
  7  8  1  0
  8  9  2  0
  9 10  1  0
 10 11  1  0
 11 12  1  0
 12 13  1  0
 12 14  1  0
 14 15  1  0
 15 16  2  0
 16 17  1  0
 17 18  2  0
 18 19  1  0
 19 20  2  0
  9 21  1  0
 21  5  2  0
 20 15  1  0
  1 22  1  0
  1 23  1  0
  1 24  1  0
  6 25  1  0
  7 26  1  0
  8 27  1  0
 10 28  1  0
 10 29  1  0
 11 30  1  0
 11 31  1  0
 13 32  1  0
 13 33  1  0
 13 34  1  0
 14 35  1  0
 14 36  1  0
 16 37  1  0
 17 38  1  0
 18 39  1  0
 19 40  1  0
 20 41  1  0
 21 42  1  0
M  END
>  <meeko>  (13) 
{"is_sidechain": [false], "free_energy": -6.439, "intermolecular_energy": -10.901, "internal_energy": -0.746}

$$$$
seed-5303
     RDKit          3D

 42 43  0  0  0  0  0  0  0  0999 V2000
  136.4750  127.4670  125.2780 C   0  0  0  0  0  0  0  0  0  0  0  0
  137.0030  126.6190  124.2580 O   0  0  0  0  0  0  0  0  0  0  0  0
  136.2720  126.6100  123.1160 C   0  0  0  0  0  0  0  0  0  0  0  0
  135.9350  127.5950  122.4780 O   0  0  0  0  0  0  0  0  0  0  0  0
  135.9250  125.2160  122.7240 C   0  0  0  0  0  0  0  0  0  0  0  0
  135.4870  124.8840  121.4360 C   0  0  0  0  0  0  0  0  0  0  0  0
  135.1780  123.5590  121.1220 C   0  0  0  0  0  0  0  0  0  0  0  0
  135.3070  122.5600  122.0870 C   0  0  0  0  0  0  0  0  0  0  0  0
  135.7490  122.8730  123.3780 C   0  0  0  0  0  0  0  0  0  0  0  0
  135.8730  121.7990  124.4340 C   0  0  0  0  0  0  0  0  0  0  0  0
  135.7280  122.3810  125.8520 C   0  0  0  0  0  0  0  0  0  0  0  0
  134.9580  121.5860  126.8280 N   0  0  0  0  0  0  0  0  0  0  0  0
  135.4220  121.7990  128.1970 C   0  0  0  0  0  0  0  0  0  0  0  0
  133.5010  121.7760  126.7410 C   0  0  0  0  0  0  0  0  0  0  0  0
  133.0880  122.9570  125.8880 C   0  0  0  0  0  0  0  0  0  0  0  0
  133.3560  124.2670  126.3130 C   0  0  0  0  0  0  0  0  0  0  0  0
  132.9670  125.3580  125.5340 C   0  0  0  0  0  0  0  0  0  0  0  0
  132.3060  125.1510  124.3240 C   0  0  0  0  0  0  0  0  0  0  0  0
  132.0350  123.8550  123.8910 C   0  0  0  0  0  0  0  0  0  0  0  0
  132.4270  122.7630  124.6660 C   0  0  0  0  0  0  0  0  0  0  0  0
  136.0510  124.2080  123.6900 C   0  0  0  0  0  0  0  0  0  0  0  0
  136.7310  127.0558  126.2656 H   0  0  0  0  0  0  0  0  0  0  0  0
  136.9060  128.4740  125.1771 H   0  0  0  0  0  0  0  0  0  0  0  0
  135.3812  127.5246  125.1771 H   0  0  0  0  0  0  0  0  0  0  0  0
  135.3863  125.6678  120.6708 H   0  0  0  0  0  0  0  0  0  0  0  0
  134.8316  123.3020  120.1101 H   0  0  0  0  0  0  0  0  0  0  0  0
  135.0597  121.5190  121.8318 H   0  0  0  0  0  0  0  0  0  0  0  0
  135.0855  121.0479  124.2739 H   0  0  0  0  0  0  0  0  0  0  0  0
  136.8712  121.3449  124.3482 H   0  0  0  0  0  0  0  0  0  0  0  0
  136.7405  122.5167  126.2599 H   0  0  0  0  0  0  0  0  0  0  0  0
  135.1517  123.3088  125.7219 H   0  0  0  0  0  0  0  0  0  0  0  0
  134.6553  121.4471  128.9029 H   0  0  0  0  0  0  0  0  0  0  0  0
  136.3547  121.2389  128.3594 H   0  0  0  0  0  0  0  0  0  0  0  0
  135.6053  122.8714  128.3594 H   0  0  0  0  0  0  0  0  0  0  0  0
  133.0577  120.8658  126.3109 H   0  0  0  0  0  0  0  0  0  0  0  0
  133.1429  121.9773  127.7614 H   0  0  0  0  0  0  0  0  0  0  0  0
  133.8766  124.4356  127.2673 H   0  0  0  0  0  0  0  0  0  0  0  0
  133.1820  126.3815  125.8749 H   0  0  0  0  0  0  0  0  0  0  0  0
  131.9984  126.0112  123.7112 H   0  0  0  0  0  0  0  0  0  0  0  0
  131.5115  123.6924  122.9373 H   0  0  0  0  0  0  0  0  0  0  0  0
  132.2160  121.7417  124.3160 H   0  0  0  0  0  0  0  0  0  0  0  0
  136.3904  124.4660  124.7040 H   0  0  0  0  0  0  0  0  0  0  0  0
  1  2  1  0
  2  3  1  0
  3  4  2  0
  3  5  1  0
  5  6  1  0
  6  7  2  0
  7  8  1  0
  8  9  2  0
  9 10  1  0
 10 11  1  0
 11 12  1  0
 12 13  1  0
 12 14  1  0
 14 15  1  0
 15 16  2  0
 16 17  1  0
 17 18  2  0
 18 19  1  0
 19 20  2  0
  9 21  1  0
 21  5  2  0
 20 15  1  0
  1 22  1  0
  1 23  1  0
  1 24  1  0
  6 25  1  0
  7 26  1  0
  8 27  1  0
 10 28  1  0
 10 29  1  0
 11 30  1  0
 11 31  1  0
 13 32  1  0
 13 33  1  0
 13 34  1  0
 14 35  1  0
 14 36  1  0
 16 37  1  0
 17 38  1  0
 18 39  1  0
 19 40  1  0
 20 41  1  0
 21 42  1  0
M  END
>  <meeko>  (14) 
{"is_sidechain": [false], "free_energy": -6.333, "intermolecular_energy": -9.984, "internal_energy": -1.514}

$$$$
seed-5303
     RDKit          3D

 42 43  0  0  0  0  0  0  0  0999 V2000
  127.8430  127.6450  123.0140 C   0  0  0  0  0  0  0  0  0  0  0  0
  128.5970  126.6540  123.7120 O   0  0  0  0  0  0  0  0  0  0  0  0
  128.9760  127.0280  124.9590 C   0  0  0  0  0  0  0  0  0  0  0  0
  128.4650  127.9160  125.6220 O   0  0  0  0  0  0  0  0  0  0  0  0
  130.1170  126.1970  125.4330 C   0  0  0  0  0  0  0  0  0  0  0  0
  129.9490  125.1170  126.3090 C   0  0  0  0  0  0  0  0  0  0  0  0
  131.0540  124.3700  126.7200 C   0  0  0  0  0  0  0  0  0  0  0  0
  132.3310  124.6920  126.2570 C   0  0  0  0  0  0  0  0  0  0  0  0
  132.5160  125.7640  125.3760 C   0  0  0  0  0  0  0  0  0  0  0  0
  133.8990  126.1310  124.8860 C   0  0  0  0  0  0  0  0  0  0  0  0
  134.1740  125.5530  123.4860 C   0  0  0  0  0  0  0  0  0  0  0  0
  135.5560  125.1240  123.1980 N   0  0  0  0  0  0  0  0  0  0  0  0
  136.2880  126.1210  122.4190 C   0  0  0  0  0  0  0  0  0  0  0  0
  136.3250  124.7350  124.3910 C   0  0  0  0  0  0  0  0  0  0  0  0
  135.8330  123.4620  125.0470 C   0  0  0  0  0  0  0  0  0  0  0  0
  135.5930  122.3150  124.2770 C   0  0  0  0  0  0  0  0  0  0  0  0
  135.1280  121.1420  124.8760 C   0  0  0  0  0  0  0  0  0  0  0  0
  134.8990  121.1060  126.2500 C   0  0  0  0  0  0  0  0  0  0  0  0
  135.1350  122.2390  127.0270 C   0  0  0  0  0  0  0  0  0  0  0  0
  135.6030  123.4100  126.4300 C   0  0  0  0  0  0  0  0  0  0  0  0
  131.4030  126.5170  124.9730 C   0  0  0  0  0  0  0  0  0  0  0  0
  127.3423  128.3031  123.7394 H   0  0  0  0  0  0  0  0  0  0  0  0
  128.5176  128.2416  122.3824 H   0  0  0  0  0  0  0  0  0  0  0  0
  127.0881  127.1539  122.3824 H   0  0  0  0  0  0  0  0  0  0  0  0
  128.9443  124.8571  126.6737 H   0  0  0  0  0  0  0  0  0  0  0  0
  130.9182  123.5249  127.4109 H   0  0  0  0  0  0  0  0  0  0  0  0
  133.1973  124.0996  126.5865 H   0  0  0  0  0  0  0  0  0  0  0  0
  133.9838  127.2269  124.8431 H   0  0  0  0  0  0  0  0  0  0  0  0
  134.6359  125.7080  125.5846 H   0  0  0  0  0  0  0  0  0  0  0  0
  133.5206  124.6780  123.3541 H   0  0  0  0  0  0  0  0  0  0  0  0
  133.9822  126.3839  122.7912 H   0  0  0  0  0  0  0  0  0  0  0  0
  136.7987  126.8166  123.1011 H   0  0  0  0  0  0  0  0  0  0  0  0
  137.0320  125.6168  121.7848 H   0  0  0  0  0  0  0  0  0  0  0  0
  135.5841  126.6799  121.7848 H   0  0  0  0  0  0  0  0  0  0  0  0
  137.3744  124.5894  124.0949 H   0  0  0  0  0  0  0  0  0  0  0  0
  136.2036  125.5427  125.1278 H   0  0  0  0  0  0  0  0  0  0  0  0
  135.7725  122.3392  123.1920 H   0  0  0  0  0  0  0  0  0  0  0  0
  134.9427  120.2473  124.2635 H   0  0  0  0  0  0  0  0  0  0  0  0
  134.5317  120.1828  126.7219 H   0  0  0  0  0  0  0  0  0  0  0  0
  134.9522  122.2098  128.1113 H   0  0  0  0  0  0  0  0  0  0  0  0
  135.7931  124.2995  127.0486 H   0  0  0  0  0  0  0  0  0  0  0  0
  131.5402  127.3675  124.2890 H   0  0  0  0  0  0  0  0  0  0  0  0
  1  2  1  0
  2  3  1  0
  3  4  2  0
  3  5  1  0
  5  6  1  0
  6  7  2  0
  7  8  1  0
  8  9  2  0
  9 10  1  0
 10 11  1  0
 11 12  1  0
 12 13  1  0
 12 14  1  0
 14 15  1  0
 15 16  2  0
 16 17  1  0
 17 18  2  0
 18 19  1  0
 19 20  2  0
  9 21  1  0
 21  5  2  0
 20 15  1  0
  1 22  1  0
  1 23  1  0
  1 24  1  0
  6 25  1  0
  7 26  1  0
  8 27  1  0
 10 28  1  0
 10 29  1  0
 11 30  1  0
 11 31  1  0
 13 32  1  0
 13 33  1  0
 13 34  1  0
 14 35  1  0
 14 36  1  0
 16 37  1  0
 17 38  1  0
 18 39  1  0
 19 40  1  0
 20 41  1  0
 21 42  1  0
M  END
>  <meeko>  (15) 
{"is_sidechain": [false], "free_energy": -6.229, "intermolecular_energy": -10.499, "internal_energy": -0.853}

$$$$
seed-5303
     RDKit          3D

 42 43  0  0  0  0  0  0  0  0999 V2000
  130.5770  127.9890  127.0900 C   0  0  0  0  0  0  0  0  0  0  0  0
  131.6190  127.5420  126.2230 O   0  0  0  0  0  0  0  0  0  0  0  0
  131.1800  127.0990  125.0190 C   0  0  0  0  0  0  0  0  0  0  0  0
  130.2900  127.6050  124.3540 O   0  0  0  0  0  0  0  0  0  0  0  0
  131.9390  125.8900  124.5940 C   0  0  0  0  0  0  0  0  0  0  0  0
  131.5920  125.1430  123.4610 C   0  0  0  0  0  0  0  0  0  0  0  0
  132.3410  124.0200  123.1060 C   0  0  0  0  0  0  0  0  0  0  0  0
  133.4410  123.6370  123.8750 C   0  0  0  0  0  0  0  0  0  0  0  0
  133.8060  124.3760  125.0080 C   0  0  0  0  0  0  0  0  0  0  0  0
  134.9840  123.9560  125.8570 C   0  0  0  0  0  0  0  0  0  0  0  0
  136.3140  124.4550  125.2640 C   0  0  0  0  0  0  0  0  0  0  0  0
  136.3310  125.8220  124.7100 N   0  0  0  0  0  0  0  0  0  0  0  0
  136.9520  126.7770  125.6250 C   0  0  0  0  0  0  0  0  0  0  0  0
  136.9350  125.9210  123.3710 C   0  0  0  0  0  0  0  0  0  0  0  0
  135.9590  125.6790  122.2400 C   0  0  0  0  0  0  0  0  0  0  0  0
  136.0890  124.5480  121.4200 C   0  0  0  0  0  0  0  0  0  0  0  0
  135.1970  124.3280  120.3690 C   0  0  0  0  0  0  0  0  0  0  0  0
  134.1670  125.2350  120.1270 C   0  0  0  0  0  0  0  0  0  0  0  0
  134.0260  126.3620  120.9350 C   0  0  0  0  0  0  0  0  0  0  0  0
  134.9140  126.5820  121.9890 C   0  0  0  0  0  0  0  0  0  0  0  0
  133.0440  125.4990  125.3640 C   0  0  0  0  0  0  0  0  0  0  0  0
  130.8883  127.8555  128.1366 H   0  0  0  0  0  0  0  0  0  0  0  0
  130.3739  129.0534  126.9008 H   0  0  0  0  0  0  0  0  0  0  0  0
  129.6658  127.4026  126.9008 H   0  0  0  0  0  0  0  0  0  0  0  0
  130.7276  125.4420  122.8499 H   0  0  0  0  0  0  0  0  0  0  0  0
  132.0634  123.4347  122.2170 H   0  0  0  0  0  0  0  0  0  0  0  0
  134.0249  122.7495  123.5898 H   0  0  0  0  0  0  0  0  0  0  0  0
  134.8637  124.3746  126.8671 H   0  0  0  0  0  0  0  0  0  0  0  0
  135.0115  122.8568  125.8890 H   0  0  0  0  0  0  0  0  0  0  0  0
  137.0699  124.4113  126.0620 H   0  0  0  0  0  0  0  0  0  0  0  0
  136.5074  123.7967  124.4042 H   0  0  0  0  0  0  0  0  0  0  0  0
  136.7538  126.4722  126.6632 H   0  0  0  0  0  0  0  0  0  0  0  0
  138.0378  126.7993  125.4503 H   0  0  0  0  0  0  0  0  0  0  0  0
  136.5319  127.7785  125.4503 H   0  0  0  0  0  0  0  0  0  0  0  0
  137.3568  126.9302  123.2548 H   0  0  0  0  0  0  0  0  0  0  0  0
  137.7008  125.1340  123.3066 H   0  0  0  0  0  0  0  0  0  0  0  0
  136.9002  123.8289  121.6068 H   0  0  0  0  0  0  0  0  0  0  0  0
  135.3072  123.4383  119.7316 H   0  0  0  0  0  0  0  0  0  0  0  0
  133.4651  125.0615  119.2981 H   0  0  0  0  0  0  0  0  0  0  0  0
  133.2141  127.0786  120.7418 H   0  0  0  0  0  0  0  0  0  0  0  0
  134.7941  127.4695  122.6277 H   0  0  0  0  0  0  0  0  0  0  0  0
  133.3165  126.0796  126.2576 H   0  0  0  0  0  0  0  0  0  0  0  0
  1  2  1  0
  2  3  1  0
  3  4  2  0
  3  5  1  0
  5  6  1  0
  6  7  2  0
  7  8  1  0
  8  9  2  0
  9 10  1  0
 10 11  1  0
 11 12  1  0
 12 13  1  0
 12 14  1  0
 14 15  1  0
 15 16  2  0
 16 17  1  0
 17 18  2  0
 18 19  1  0
 19 20  2  0
  9 21  1  0
 21  5  2  0
 20 15  1  0
  1 22  1  0
  1 23  1  0
  1 24  1  0
  6 25  1  0
  7 26  1  0
  8 27  1  0
 10 28  1  0
 10 29  1  0
 11 30  1  0
 11 31  1  0
 13 32  1  0
 13 33  1  0
 13 34  1  0
 14 35  1  0
 14 36  1  0
 16 37  1  0
 17 38  1  0
 18 39  1  0
 19 40  1  0
 20 41  1  0
 21 42  1  0
M  END
>  <meeko>  (16) 
{"is_sidechain": [false], "free_energy": -6.224, "intermolecular_energy": -9.163, "internal_energy": -2.181}

$$$$
seed-5303
     RDKit          3D

 42 43  0  0  0  0  0  0  0  0999 V2000
  127.4720  128.7140  122.2050 C   0  0  0  0  0  0  0  0  0  0  0  0
  128.3680  128.0450  123.0910 O   0  0  0  0  0  0  0  0  0  0  0  0
  129.0980  128.8810  123.8710 C   0  0  0  0  0  0  0  0  0  0  0  0
  129.3470  130.0500  123.6240 O   0  0  0  0  0  0  0  0  0  0  0  0
  129.5670  128.1800  125.0990 C   0  0  0  0  0  0  0  0  0  0  0  0
  128.9730  128.3780  126.3520 C   0  0  0  0  0  0  0  0  0  0  0  0
  129.4500  127.6920  127.4690 C   0  0  0  0  0  0  0  0  0  0  0  0
  130.5200  126.8040  127.3450 C   0  0  0  0  0  0  0  0  0  0  0  0
  131.1220  126.5900  126.0990 C   0  0  0  0  0  0  0  0  0  0  0  0
  132.2930  125.6440  125.9600 C   0  0  0  0  0  0  0  0  0  0  0  0
  133.3400  126.1830  124.9680 C   0  0  0  0  0  0  0  0  0  0  0  0
  133.8630  125.2350  123.9650 N   0  0  0  0  0  0  0  0  0  0  0  0
  133.7900  125.7750  122.6090 C   0  0  0  0  0  0  0  0  0  0  0  0
  135.2210  124.7440  124.2530 C   0  0  0  0  0  0  0  0  0  0  0  0
  135.2510  123.4840  125.0910 C   0  0  0  0  0  0  0  0  0  0  0  0
  135.2700  123.5630  126.4910 C   0  0  0  0  0  0  0  0  0  0  0  0
  135.3090  122.4030  127.2670 C   0  0  0  0  0  0  0  0  0  0  0  0
  135.3300  121.1530  126.6510 C   0  0  0  0  0  0  0  0  0  0  0  0
  135.3100  121.0610  125.2600 C   0  0  0  0  0  0  0  0  0  0  0  0
  135.2670  122.2190  124.4840 C   0  0  0  0  0  0  0  0  0  0  0  0
  130.6420  127.2880  124.9800 C   0  0  0  0  0  0  0  0  0  0  0  0
  126.7256  129.2713  122.7902 H   0  0  0  0  0  0  0  0  0  0  0  0
  128.0371  129.4129  121.5709 H   0  0  0  0  0  0  0  0  0  0  0  0
  126.9624  127.9736  121.5709 H   0  0  0  0  0  0  0  0  0  0  0  0
  128.1289  129.0757  126.4553 H   0  0  0  0  0  0  0  0  0  0  0  0
  128.9812  127.8514  128.4513 H   0  0  0  0  0  0  0  0  0  0  0  0
  130.8924  126.2693  128.2313 H   0  0  0  0  0  0  0  0  0  0  0  0
  132.7667  125.5147  126.9443 H   0  0  0  0  0  0  0  0  0  0  0  0
  131.9171  124.6839  125.5768 H   0  0  0  0  0  0  0  0  0  0  0  0
  132.8809  127.0218  124.4242 H   0  0  0  0  0  0  0  0  0  0  0  0
  134.2085  126.4517  125.5873 H   0  0  0  0  0  0  0  0  0  0  0  0
  133.6427  126.8641  122.6555 H   0  0  0  0  0  0  0  0  0  0  0  0
  134.7262  125.5540  122.0754 H   0  0  0  0  0  0  0  0  0  0  0  0
  132.9461  125.3133  122.0754 H   0  0  0  0  0  0  0  0  0  0  0  0
  135.7246  124.5367  123.2973 H   0  0  0  0  0  0  0  0  0  0  0  0
  135.7278  125.5277  124.8352 H   0  0  0  0  0  0  0  0  0  0  0  0
  135.2540  124.5472  126.9819 H   0  0  0  0  0  0  0  0  0  0  0  0
  135.3232  122.4757  128.3645 H   0  0  0  0  0  0  0  0  0  0  0  0
  135.3624  120.2391  127.2623 H   0  0  0  0  0  0  0  0  0  0  0  0
  135.3281  120.0743  124.7742 H   0  0  0  0  0  0  0  0  0  0  0  0
  135.2454  122.1400  123.3871 H   0  0  0  0  0  0  0  0  0  0  0  0
  131.1145  127.1335  123.9987 H   0  0  0  0  0  0  0  0  0  0  0  0
  1  2  1  0
  2  3  1  0
  3  4  2  0
  3  5  1  0
  5  6  1  0
  6  7  2  0
  7  8  1  0
  8  9  2  0
  9 10  1  0
 10 11  1  0
 11 12  1  0
 12 13  1  0
 12 14  1  0
 14 15  1  0
 15 16  2  0
 16 17  1  0
 17 18  2  0
 18 19  1  0
 19 20  2  0
  9 21  1  0
 21  5  2  0
 20 15  1  0
  1 22  1  0
  1 23  1  0
  1 24  1  0
  6 25  1  0
  7 26  1  0
  8 27  1  0
 10 28  1  0
 10 29  1  0
 11 30  1  0
 11 31  1  0
 13 32  1  0
 13 33  1  0
 13 34  1  0
 14 35  1  0
 14 36  1  0
 16 37  1  0
 17 38  1  0
 18 39  1  0
 19 40  1  0
 20 41  1  0
 21 42  1  0
M  END
>  <meeko>  (17) 
{"is_sidechain": [false], "free_energy": -6.067, "intermolecular_energy": -10.516, "internal_energy": -0.606}

$$$$
seed-5303
     RDKit          3D

 42 43  0  0  0  0  0  0  0  0999 V2000
  128.2220  127.3910  123.5450 C   0  0  0  0  0  0  0  0  0  0  0  0
  128.3750  127.4830  124.9610 O   0  0  0  0  0  0  0  0  0  0  0  0
  129.6670  127.4820  125.3760 C   0  0  0  0  0  0  0  0  0  0  0  0
  130.4330  128.4310  125.3240 O   0  0  0  0  0  0  0  0  0  0  0  0
  130.0440  126.1480  125.9210 C   0  0  0  0  0  0  0  0  0  0  0  0
  129.1240  125.3120  126.5670 C   0  0  0  0  0  0  0  0  0  0  0  0
  129.5310  124.0690  127.0550 C   0  0  0  0  0  0  0  0  0  0  0  0
  130.8530  123.6520  126.8990 C   0  0  0  0  0  0  0  0  0  0  0  0
  131.7840  124.4720  126.2510 C   0  0  0  0  0  0  0  0  0  0  0  0
  133.2230  124.0350  126.0950 C   0  0  0  0  0  0  0  0  0  0  0  0
  134.0890  125.1490  125.4790 C   0  0  0  0  0  0  0  0  0  0  0  0
  134.9060  124.7900  124.3040 N   0  0  0  0  0  0  0  0  0  0  0  0
  136.2700  124.4200  124.6770 C   0  0  0  0  0  0  0  0  0  0  0  0
  134.3050  123.7530  123.4490 C   0  0  0  0  0  0  0  0  0  0  0  0
  134.5400  123.9690  121.9700 C   0  0  0  0  0  0  0  0  0  0  0  0
  133.9050  125.0230  121.2970 C   0  0  0  0  0  0  0  0  0  0  0  0
  134.1100  125.2190  119.9300 C   0  0  0  0  0  0  0  0  0  0  0  0
  134.9520  124.3620  119.2220 C   0  0  0  0  0  0  0  0  0  0  0  0
  135.5910  123.3120  119.8790 C   0  0  0  0  0  0  0  0  0  0  0  0
  135.3890  123.1170  121.2460 C   0  0  0  0  0  0  0  0  0  0  0  0
  131.3710  125.7240  125.7690 C   0  0  0  0  0  0  0  0  0  0  0  0
  127.3009  126.8371  123.3109 H   0  0  0  0  0  0  0  0  0  0  0  0
  128.1607  128.4022  123.1163 H   0  0  0  0  0  0  0  0  0  0  0  0
  129.0864  126.8628  123.1163 H   0  0  0  0  0  0  0  0  0  0  0  0
  128.0798  125.6354  126.6898 H   0  0  0  0  0  0  0  0  0  0  0  0
  128.8068  123.4162  127.5643 H   0  0  0  0  0  0  0  0  0  0  0  0
  131.1660  122.6718  127.2880 H   0  0  0  0  0  0  0  0  0  0  0  0
  133.6266  123.7749  127.0847 H   0  0  0  0  0  0  0  0  0  0  0  0
  133.2481  123.1665  125.4205 H   0  0  0  0  0  0  0  0  0  0  0  0
  133.4153  125.9648  125.1780 H   0  0  0  0  0  0  0  0  0  0  0  0
  134.8152  125.4123  126.2622 H   0  0  0  0  0  0  0  0  0  0  0  0
  136.3567  124.3965  125.7733 H   0  0  0  0  0  0  0  0  0  0  0  0
  136.5047  123.4257  124.2692 H   0  0  0  0  0  0  0  0  0  0  0  0
  136.9750  125.1594  124.2692 H   0  0  0  0  0  0  0  0  0  0  0  0
  134.7346  122.7801  123.7299 H   0  0  0  0  0  0  0  0  0  0  0  0
  133.2177  123.7956  123.6101 H   0  0  0  0  0  0  0  0  0  0  0  0
  133.2395  125.7013  121.8512 H   0  0  0  0  0  0  0  0  0  0  0  0
  133.6076  126.0490  119.4117 H   0  0  0  0  0  0  0  0  0  0  0  0
  135.1119  124.5148  118.1445 H   0  0  0  0  0  0  0  0  0  0  0  0
  136.2550  122.6365  119.3197 H   0  0  0  0  0  0  0  0  0  0  0  0
  135.8991  122.2892  121.7603 H   0  0  0  0  0  0  0  0  0  0  0  0
  132.0972  126.3797  125.2663 H   0  0  0  0  0  0  0  0  0  0  0  0
  1  2  1  0
  2  3  1  0
  3  4  2  0
  3  5  1  0
  5  6  1  0
  6  7  2  0
  7  8  1  0
  8  9  2  0
  9 10  1  0
 10 11  1  0
 11 12  1  0
 12 13  1  0
 12 14  1  0
 14 15  1  0
 15 16  2  0
 16 17  1  0
 17 18  2  0
 18 19  1  0
 19 20  2  0
  9 21  1  0
 21  5  2  0
 20 15  1  0
  1 22  1  0
  1 23  1  0
  1 24  1  0
  6 25  1  0
  7 26  1  0
  8 27  1  0
 10 28  1  0
 10 29  1  0
 11 30  1  0
 11 31  1  0
 13 32  1  0
 13 33  1  0
 13 34  1  0
 14 35  1  0
 14 36  1  0
 16 37  1  0
 17 38  1  0
 18 39  1  0
 19 40  1  0
 20 41  1  0
 21 42  1  0
M  END
>  <meeko>  (18) 
{"is_sidechain": [false], "free_energy": -6.032, "intermolecular_energy": -10.377, "internal_energy": -0.697}

$$$$
seed-5303
     RDKit          3D

 42 43  0  0  0  0  0  0  0  0999 V2000
  131.3780  126.6910  126.7370 C   0  0  0  0  0  0  0  0  0  0  0  0
  132.3340  125.8830  126.0500 O   0  0  0  0  0  0  0  0  0  0  0  0
  131.7950  124.8110  125.4180 C   0  0  0  0  0  0  0  0  0  0  0  0
  130.8020  124.8280  124.7080 O   0  0  0  0  0  0  0  0  0  0  0  0
  132.5860  123.5810  125.6990 C   0  0  0  0  0  0  0  0  0  0  0  0
  132.0480  122.4780  126.3750 C   0  0  0  0  0  0  0  0  0  0  0  0
  132.8340  121.3490  126.6090 C   0  0  0  0  0  0  0  0  0  0  0  0
  134.1570  121.3100  126.1680 C   0  0  0  0  0  0  0  0  0  0  0  0
  134.7100  122.4010  125.4860 C   0  0  0  0  0  0  0  0  0  0  0  0
  136.1490  122.3740  125.0230 C   0  0  0  0  0  0  0  0  0  0  0  0
  136.4410  123.5050  124.0190 C   0  0  0  0  0  0  0  0  0  0  0  0
  136.3170  124.8890  124.5150 N   0  0  0  0  0  0  0  0  0  0  0  0
  137.2570  125.1700  125.5980 C   0  0  0  0  0  0  0  0  0  0  0  0
  136.4190  125.9150  123.4630 C   0  0  0  0  0  0  0  0  0  0  0  0
  135.5280  125.6550  122.2680 C   0  0  0  0  0  0  0  0  0  0  0  0
  134.1340  125.7630  122.3840 C   0  0  0  0  0  0  0  0  0  0  0  0
  133.3090  125.5130  121.2870 C   0  0  0  0  0  0  0  0  0  0  0  0
  133.8680  125.1520  120.0620 C   0  0  0  0  0  0  0  0  0  0  0  0
  135.2510  125.0420  119.9330 C   0  0  0  0  0  0  0  0  0  0  0  0
  136.0780  125.2950  121.0280 C   0  0  0  0  0  0  0  0  0  0  0  0
  133.9170  123.5370  125.2610 C   0  0  0  0  0  0  0  0  0  0  0  0
  131.5136  126.5764  127.8226 H   0  0  0  0  0  0  0  0  0  0  0  0
  131.5217  127.7455  126.4588 H   0  0  0  0  0  0  0  0  0  0  0  0
  130.3622  126.3736  126.4588 H   0  0  0  0  0  0  0  0  0  0  0  0
  131.0044  122.5020  126.7218 H   0  0  0  0  0  0  0  0  0  0  0  0
  132.4088  120.4865  127.1432 H   0  0  0  0  0  0  0  0  0  0  0  0
  134.7698  120.4164  126.3572 H   0  0  0  0  0  0  0  0  0  0  0  0
  136.8075  122.4924  125.8961 H   0  0  0  0  0  0  0  0  0  0  0  0
  136.3320  121.4121  124.5217 H   0  0  0  0  0  0  0  0  0  0  0  0
  137.4723  123.3722  123.6601 H   0  0  0  0  0  0  0  0  0  0  0  0
  135.6649  123.4080  123.2455 H   0  0  0  0  0  0  0  0  0  0  0  0
  136.7565  125.0204  126.5660 H   0  0  0  0  0  0  0  0  0  0  0  0
  138.1183  124.4901  125.5216 H   0  0  0  0  0  0  0  0  0  0  0  0
  137.6038  126.2111  125.5216 H   0  0  0  0  0  0  0  0  0  0  0  0
  136.1412  126.8864  123.8979 H   0  0  0  0  0  0  0  0  0  0  0  0
  137.4568  125.8982  123.0986 H   0  0  0  0  0  0  0  0  0  0  0  0
  133.6876  126.0473  123.3483 H   0  0  0  0  0  0  0  0  0  0  0  0
  132.2172  125.6008  121.3887 H   0  0  0  0  0  0  0  0  0  0  0  0
  133.2174  124.9540  119.1974 H   0  0  0  0  0  0  0  0  0  0  0  0
  135.6915  124.7553  118.9667 H   0  0  0  0  0  0  0  0  0  0  0  0
  137.1694  125.2117  120.9185 H   0  0  0  0  0  0  0  0  0  0  0  0
  134.3449  124.4030  124.7348 H   0  0  0  0  0  0  0  0  0  0  0  0
  1  2  1  0
  2  3  1  0
  3  4  2  0
  3  5  1  0
  5  6  1  0
  6  7  2  0
  7  8  1  0
  8  9  2  0
  9 10  1  0
 10 11  1  0
 11 12  1  0
 12 13  1  0
 12 14  1  0
 14 15  1  0
 15 16  2  0
 16 17  1  0
 17 18  2  0
 18 19  1  0
 19 20  2  0
  9 21  1  0
 21  5  2  0
 20 15  1  0
  1 22  1  0
  1 23  1  0
  1 24  1  0
  6 25  1  0
  7 26  1  0
  8 27  1  0
 10 28  1  0
 10 29  1  0
 11 30  1  0
 11 31  1  0
 13 32  1  0
 13 33  1  0
 13 34  1  0
 14 35  1  0
 14 36  1  0
 16 37  1  0
 17 38  1  0
 18 39  1  0
 19 40  1  0
 20 41  1  0
 21 42  1  0
M  END
>  <meeko>  (19) 
{"is_sidechain": [false], "free_energy": -5.993, "intermolecular_energy": -10.633, "internal_energy": -0.386}

$$$$
seed-5303
     RDKit          3D

 42 43  0  0  0  0  0  0  0  0999 V2000
  136.1250  125.5170  121.4340 C   0  0  0  0  0  0  0  0  0  0  0  0
  135.3730  124.8860  122.4710 O   0  0  0  0  0  0  0  0  0  0  0  0
  135.5100  123.5370  122.5060 C   0  0  0  0  0  0  0  0  0  0  0  0
  135.9990  122.8470  121.6250 O   0  0  0  0  0  0  0  0  0  0  0  0
  134.9800  122.9880  123.7850 C   0  0  0  0  0  0  0  0  0  0  0  0
  135.4260  121.7750  124.3250 C   0  0  0  0  0  0  0  0  0  0  0  0
  134.8980  121.3080  125.5300 C   0  0  0  0  0  0  0  0  0  0  0  0
  133.9260  122.0490  126.2040 C   0  0  0  0  0  0  0  0  0  0  0  0
  133.4730  123.2660  125.6820 C   0  0  0  0  0  0  0  0  0  0  0  0
  132.4060  124.0640  126.3970 C   0  0  0  0  0  0  0  0  0  0  0  0
  131.3670  124.6280  125.4110 C   0  0  0  0  0  0  0  0  0  0  0  0
  131.5450  126.0270  124.9770 N   0  0  0  0  0  0  0  0  0  0  0  0
  131.7220  126.1340  123.5310 C   0  0  0  0  0  0  0  0  0  0  0  0
  130.4840  126.9390  125.4360 C   0  0  0  0  0  0  0  0  0  0  0  0
  130.5720  127.2880  126.9070 C   0  0  0  0  0  0  0  0  0  0  0  0
  129.6710  126.7260  127.8240 C   0  0  0  0  0  0  0  0  0  0  0  0
  129.7420  127.0540  129.1790 C   0  0  0  0  0  0  0  0  0  0  0  0
  130.7120  127.9460  129.6300 C   0  0  0  0  0  0  0  0  0  0  0  0
  131.6140  128.5110  128.7290 C   0  0  0  0  0  0  0  0  0  0  0  0
  131.5470  128.1810  127.3750 C   0  0  0  0  0  0  0  0  0  0  0  0
  134.0020  123.7270  124.4660 C   0  0  0  0  0  0  0  0  0  0  0  0
  136.8950  126.1631  121.8807 H   0  0  0  0  0  0  0  0  0  0  0  0
  136.6069  124.7489  120.8112 H   0  0  0  0  0  0  0  0  0  0  0  0
  135.4523  126.1250  120.8112 H   0  0  0  0  0  0  0  0  0  0  0  0
  136.1939  121.1892  123.7985 H   0  0  0  0  0  0  0  0  0  0  0  0
  135.2489  120.3535  125.9494 H   0  0  0  0  0  0  0  0  0  0  0  0
  133.5131  121.6739  127.1521 H   0  0  0  0  0  0  0  0  0  0  0  0
  131.8951  123.4106  127.1196 H   0  0  0  0  0  0  0  0  0  0  0  0
  132.8912  124.9089  126.9076 H   0  0  0  0  0  0  0  0  0  0  0  0
  131.3870  123.9963  124.5107 H   0  0  0  0  0  0  0  0  0  0  0  0
  130.4156  124.6193  125.9630 H   0  0  0  0  0  0  0  0  0  0  0  0
  132.6450  126.6920  123.3149 H   0  0  0  0  0  0  0  0  0  0  0  0
  131.7918  125.1267  123.0946 H   0  0  0  0  0  0  0  0  0  0  0  0
  130.8625  126.6639  123.0946 H   0  0  0  0  0  0  0  0  0  0  0  0
  130.5512  127.8700  124.8541 H   0  0  0  0  0  0  0  0  0  0  0  0
  129.5269  126.4176  125.2872 H   0  0  0  0  0  0  0  0  0  0  0  0
  128.9028  126.0215  127.4725 H   0  0  0  0  0  0  0  0  0  0  0  0
  129.0317  126.6079  129.8907 H   0  0  0  0  0  0  0  0  0  0  0  0
  130.7666  128.2050  130.6977 H   0  0  0  0  0  0  0  0  0  0  0  0
  132.3784  129.2169  129.0858 H   0  0  0  0  0  0  0  0  0  0  0  0
  132.2645  128.6247  126.6690 H   0  0  0  0  0  0  0  0  0  0  0  0
  133.6456  124.6778  124.0430 H   0  0  0  0  0  0  0  0  0  0  0  0
  1  2  1  0
  2  3  1  0
  3  4  2  0
  3  5  1  0
  5  6  1  0
  6  7  2  0
  7  8  1  0
  8  9  2  0
  9 10  1  0
 10 11  1  0
 11 12  1  0
 12 13  1  0
 12 14  1  0
 14 15  1  0
 15 16  2  0
 16 17  1  0
 17 18  2  0
 18 19  1  0
 19 20  2  0
  9 21  1  0
 21  5  2  0
 20 15  1  0
  1 22  1  0
  1 23  1  0
  1 24  1  0
  6 25  1  0
  7 26  1  0
  8 27  1  0
 10 28  1  0
 10 29  1  0
 11 30  1  0
 11 31  1  0
 13 32  1  0
 13 33  1  0
 13 34  1  0
 14 35  1  0
 14 36  1  0
 16 37  1  0
 17 38  1  0
 18 39  1  0
 19 40  1  0
 20 41  1  0
 21 42  1  0
M  END
>  <meeko>  (20) 
{"is_sidechain": [false], "free_energy": -5.847, "intermolecular_energy": -10.25, "internal_energy": -0.564}

$$$$
