seed-5302
     RDKit          3D

 42 43  0  0  0  0  0  0  0  0999 V2000
  130.3930  124.0160  126.9840 C   0  0  0  0  0  0  0  0  0  0  0  0
  131.3980  123.0330  126.7360 O   0  0  0  0  0  0  0  0  0  0  0  0
  131.7190  122.8940  125.4250 C   0  0  0  0  0  0  0  0  0  0  0  0
  130.9750  123.1160  124.4820 O   0  0  0  0  0  0  0  0  0  0  0  0
  133.1250  122.4270  125.2740 C   0  0  0  0  0  0  0  0  0  0  0  0
  133.6870  121.4510  126.1070 C   0  0  0  0  0  0  0  0  0  0  0  0
  135.0100  121.0480  125.9180 C   0  0  0  0  0  0  0  0  0  0  0  0
  135.7770  121.6100  124.8970 C   0  0  0  0  0  0  0  0  0  0  0  0
  135.2290  122.5820  124.0520 C   0  0  0  0  0  0  0  0  0  0  0  0
  136.0600  123.2100  122.9560 C   0  0  0  0  0  0  0  0  0  0  0  0
  135.4310  124.5210  122.4500 C   0  0  0  0  0  0  0  0  0  0  0  0
  134.6390  124.4480  121.2080 N   0  0  0  0  0  0  0  0  0  0  0  0
  133.5330  125.4030  121.2050 C   0  0  0  0  0  0  0  0  0  0  0  0
  135.4370  124.5790  119.9770 C   0  0  0  0  0  0  0  0  0  0  0  0
  135.2350  123.4460  118.9940 C   0  0  0  0  0  0  0  0  0  0  0  0
  134.9040  123.7160  117.6580 C   0  0  0  0  0  0  0  0  0  0  0  0
  134.7060  122.6730  116.7510 C   0  0  0  0  0  0  0  0  0  0  0  0
  134.8360  121.3510  117.1710 C   0  0  0  0  0  0  0  0  0  0  0  0
  135.1640  121.0690  118.4960 C   0  0  0  0  0  0  0  0  0  0  0  0
  135.3660  122.1100  119.4020 C   0  0  0  0  0  0  0  0  0  0  0  0
  133.9010  122.9890  124.2510 C   0  0  0  0  0  0  0  0  0  0  0  0
  130.2637  124.1425  128.0690 H   0  0  0  0  0  0  0  0  0  0  0  0
  130.6985  124.9736  126.5370 H   0  0  0  0  0  0  0  0  0  0  0  0
  129.4424  123.6894  126.5370 H   0  0  0  0  0  0  0  0  0  0  0  0
  133.0852  121.0018  126.9108 H   0  0  0  0  0  0  0  0  0  0  0  0
  135.4495  120.2844  126.5766 H   0  0  0  0  0  0  0  0  0  0  0  0
  136.8190  121.2872  124.7552 H   0  0  0  0  0  0  0  0  0  0  0  0
  137.0652  123.4241  123.3481 H   0  0  0  0  0  0  0  0  0  0  0  0
  136.1096  122.5041  122.1138 H   0  0  0  0  0  0  0  0  0  0  0  0
  134.7698  124.8997  123.2434 H   0  0  0  0  0  0  0  0  0  0  0  0
  136.2839  125.1719  122.2071 H   0  0  0  0  0  0  0  0  0  0  0  0
  133.2539  125.6440  122.2413 H   0  0  0  0  0  0  0  0  0  0  0  0
  133.8433  126.3217  120.6857 H   0  0  0  0  0  0  0  0  0  0  0  0
  132.6693  124.9621  120.6857 H   0  0  0  0  0  0  0  0  0  0  0  0
  135.1588  125.5212  119.4821 H   0  0  0  0  0  0  0  0  0  0  0  0
  136.4949  124.5574  120.2775 H   0  0  0  0  0  0  0  0  0  0  0  0
  134.7995  124.7582  117.3219 H   0  0  0  0  0  0  0  0  0  0  0  0
  134.4474  122.8951  115.7051 H   0  0  0  0  0  0  0  0  0  0  0  0
  134.6797  120.5293  116.4565 H   0  0  0  0  0  0  0  0  0  0  0  0
  135.2636  120.0248  118.8273 H   0  0  0  0  0  0  0  0  0  0  0  0
  135.6302  121.8817  120.4451 H   0  0  0  0  0  0  0  0  0  0  0  0
  133.4640  123.7578  123.5968 H   0  0  0  0  0  0  0  0  0  0  0  0
  1  2  1  0
  2  3  1  0
  3  4  2  0
  3  5  1  0
  5  6  1  0
  6  7  2  0
  7  8  1  0
  8  9  2  0
  9 10  1  0
 10 11  1  0
 11 12  1  0
 12 13  1  0
 12 14  1  0
 14 15  1  0
 15 16  2  0
 16 17  1  0
 17 18  2  0
 18 19  1  0
 19 20  2  0
  9 21  1  0
 21  5  2  0
 20 15  1  0
  1 22  1  0
  1 23  1  0
  1 24  1  0
  6 25  1  0
  7 26  1  0
  8 27  1  0
 10 28  1  0
 10 29  1  0
 11 30  1  0
 11 31  1  0
 13 32  1  0
 13 33  1  0
 13 34  1  0
 14 35  1  0
 14 36  1  0
 16 37  1  0
 17 38  1  0
 18 39  1  0
 19 40  1  0
 20 41  1  0
 21 42  1  0
M  END
>  <meeko>  (1) 
{"is_sidechain": [false], "free_energy": -8.729, "intermolecular_energy": -12.301, "internal_energy": -0.691}

$$$$
seed-5302
     RDKit          3D

 42 43  0  0  0  0  0  0  0  0999 V2000
  135.1660  122.3330  115.9430 C   0  0  0  0  0  0  0  0  0  0  0  0
  134.3870  122.4570  117.1330 O   0  0  0  0  0  0  0  0  0  0  0  0
  134.1380  123.7390  117.4970 C   0  0  0  0  0  0  0  0  0  0  0  0
  133.4890  124.5490  116.8520 O   0  0  0  0  0  0  0  0  0  0  0  0
  134.7640  124.0450  118.8120 C   0  0  0  0  0  0  0  0  0  0  0  0
  135.8520  123.3200  119.3150 C   0  0  0  0  0  0  0  0  0  0  0  0
  136.4030  123.6520  120.5530 C   0  0  0  0  0  0  0  0  0  0  0  0
  135.8770  124.7100  121.2950 C   0  0  0  0  0  0  0  0  0  0  0  0
  134.7940  125.4500  120.8060 C   0  0  0  0  0  0  0  0  0  0  0  0
  134.2060  126.5850  121.6130 C   0  0  0  0  0  0  0  0  0  0  0  0
  133.0720  126.0970  122.5330 C   0  0  0  0  0  0  0  0  0  0  0  0
  133.4620  125.3010  123.7120 N   0  0  0  0  0  0  0  0  0  0  0  0
  133.1470  125.9860  124.9640 C   0  0  0  0  0  0  0  0  0  0  0  0
  132.9170  123.9330  123.7210 C   0  0  0  0  0  0  0  0  0  0  0  0
  133.7760  122.9380  124.4710 C   0  0  0  0  0  0  0  0  0  0  0  0
  133.2770  122.2850  125.6080 C   0  0  0  0  0  0  0  0  0  0  0  0
  134.0700  121.3750  126.3090 C   0  0  0  0  0  0  0  0  0  0  0  0
  135.3690  121.1090  125.8810 C   0  0  0  0  0  0  0  0  0  0  0  0
  135.8760  121.7500  124.7520 C   0  0  0  0  0  0  0  0  0  0  0  0
  135.0840  122.6570  124.0480 C   0  0  0  0  0  0  0  0  0  0  0  0
  134.2390  125.1060  119.5640 C   0  0  0  0  0  0  0  0  0  0  0  0
  136.2197  122.1653  116.2104 H   0  0  0  0  0  0  0  0  0  0  0  0
  134.7980  121.4821  115.3509 H   0  0  0  0  0  0  0  0  0  0  0  0
  135.0804  123.2561  115.3509 H   0  0  0  0  0  0  0  0  0  0  0  0
  136.2728  122.4871  118.7326 H   0  0  0  0  0  0  0  0  0  0  0  0
  137.2551  123.0776  120.9455 H   0  0  0  0  0  0  0  0  0  0  0  0
  136.3163  124.9644  122.2709 H   0  0  0  0  0  0  0  0  0  0  0  0
  134.9989  127.0327  122.2301 H   0  0  0  0  0  0  0  0  0  0  0  0
  133.7883  127.3244  120.9139 H   0  0  0  0  0  0  0  0  0  0  0  0
  132.5334  126.9850  122.8955 H   0  0  0  0  0  0  0  0  0  0  0  0
  132.4743  125.4136  121.9119 H   0  0  0  0  0  0  0  0  0  0  0  0
  133.4392  125.3507  125.8131 H   0  0  0  0  0  0  0  0  0  0  0  0
  133.6984  126.9367  125.0106 H   0  0  0  0  0  0  0  0  0  0  0  0
  132.0664  126.1862  125.0106 H   0  0  0  0  0  0  0  0  0  0  0  0
  131.9237  123.9586  124.1929 H   0  0  0  0  0  0  0  0  0  0  0  0
  132.8775  123.5971  122.6743 H   0  0  0  0  0  0  0  0  0  0  0  0
  132.2522  122.4919  125.9500 H   0  0  0  0  0  0  0  0  0  0  0  0
  133.6695  120.8679  127.1992 H   0  0  0  0  0  0  0  0  0  0  0  0
  135.9945  120.3930  126.4342 H   0  0  0  0  0  0  0  0  0  0  0  0
  136.9021  121.5403  124.4157 H   0  0  0  0  0  0  0  0  0  0  0  0
  135.4878  123.1557  123.1546 H   0  0  0  0  0  0  0  0  0  0  0  0
  133.3818  125.6754  119.1755 H   0  0  0  0  0  0  0  0  0  0  0  0
  1  2  1  0
  2  3  1  0
  3  4  2  0
  3  5  1  0
  5  6  1  0
  6  7  2  0
  7  8  1  0
  8  9  2  0
  9 10  1  0
 10 11  1  0
 11 12  1  0
 12 13  1  0
 12 14  1  0
 14 15  1  0
 15 16  2  0
 16 17  1  0
 17 18  2  0
 18 19  1  0
 19 20  2  0
  9 21  1  0
 21  5  2  0
 20 15  1  0
  1 22  1  0
  1 23  1  0
  1 24  1  0
  6 25  1  0
  7 26  1  0
  8 27  1  0
 10 28  1  0
 10 29  1  0
 11 30  1  0
 11 31  1  0
 13 32  1  0
 13 33  1  0
 13 34  1  0
 14 35  1  0
 14 36  1  0
 16 37  1  0
 17 38  1  0
 18 39  1  0
 19 40  1  0
 20 41  1  0
 21 42  1  0
M  END
>  <meeko>  (2) 
{"is_sidechain": [false], "free_energy": -8.637, "intermolecular_energy": -11.99, "internal_energy": -0.872}

$$$$
seed-5302
     RDKit          3D

 42 43  0  0  0  0  0  0  0  0999 V2000
  134.5030  124.8160  118.8120 C   0  0  0  0  0  0  0  0  0  0  0  0
  134.9170  124.9580  120.1700 O   0  0  0  0  0  0  0  0  0  0  0  0
  135.4780  123.8410  120.6940 C   0  0  0  0  0  0  0  0  0  0  0  0
  135.6900  122.8000  120.0920 O   0  0  0  0  0  0  0  0  0  0  0  0
  135.8170  124.0450  122.1300 C   0  0  0  0  0  0  0  0  0  0  0  0
  136.1530  125.3000  122.6530 C   0  0  0  0  0  0  0  0  0  0  0  0
  136.4580  125.4360  124.0080 C   0  0  0  0  0  0  0  0  0  0  0  0
  136.4260  124.3240  124.8500 C   0  0  0  0  0  0  0  0  0  0  0  0
  136.0860  123.0630  124.3460 C   0  0  0  0  0  0  0  0  0  0  0  0
  136.0680  121.8490  125.2480 C   0  0  0  0  0  0  0  0  0  0  0  0
  135.0950  122.0350  126.4270 C   0  0  0  0  0  0  0  0  0  0  0  0
  133.6560  122.0780  126.1070 N   0  0  0  0  0  0  0  0  0  0  0  0
  132.9100  121.0230  126.7900 C   0  0  0  0  0  0  0  0  0  0  0  0
  133.0270  123.3890  126.3410 C   0  0  0  0  0  0  0  0  0  0  0  0
  132.7710  124.1780  125.0750 C   0  0  0  0  0  0  0  0  0  0  0  0
  132.3790  123.5240  123.8980 C   0  0  0  0  0  0  0  0  0  0  0  0
  132.1530  124.2480  122.7250 C   0  0  0  0  0  0  0  0  0  0  0  0
  132.3180  125.6320  122.7190 C   0  0  0  0  0  0  0  0  0  0  0  0
  132.7060  126.2940  123.8820 C   0  0  0  0  0  0  0  0  0  0  0  0
  132.9280  125.5730  125.0550 C   0  0  0  0  0  0  0  0  0  0  0  0
  135.7880  122.9310  122.9810 C   0  0  0  0  0  0  0  0  0  0  0  0
  133.4629  124.4593  118.7811 H   0  0  0  0  0  0  0  0  0  0  0  0
  134.5721  125.7892  118.3039 H   0  0  0  0  0  0  0  0  0  0  0  0
  135.1549  124.0901  118.3039 H   0  0  0  0  0  0  0  0  0  0  0  0
  136.1766  126.1806  121.9942 H   0  0  0  0  0  0  0  0  0  0  0  0
  136.7245  126.4232  124.4135 H   0  0  0  0  0  0  0  0  0  0  0  0
  136.6694  124.4388  125.9166 H   0  0  0  0  0  0  0  0  0  0  0  0
  135.7550  120.9727  124.6614 H   0  0  0  0  0  0  0  0  0  0  0  0
  137.0799  121.7072  125.6553 H   0  0  0  0  0  0  0  0  0  0  0  0
  135.2551  121.1995  127.1244 H   0  0  0  0  0  0  0  0  0  0  0  0
  135.3269  123.0300  126.8346 H   0  0  0  0  0  0  0  0  0  0  0  0
  133.0027  121.1540  127.8782 H   0  0  0  0  0  0  0  0  0  0  0  0
  131.8496  121.0790  126.5029 H   0  0  0  0  0  0  0  0  0  0  0  0
  133.3163  120.0419  126.5029 H   0  0  0  0  0  0  0  0  0  0  0  0
  132.0649  123.2264  126.8489 H   0  0  0  0  0  0  0  0  0  0  0  0
  133.7297  123.9777  126.9490 H   0  0  0  0  0  0  0  0  0  0  0  0
  132.2484  122.4318  123.8985 H   0  0  0  0  0  0  0  0  0  0  0  0
  131.8451  123.7263  121.8068 H   0  0  0  0  0  0  0  0  0  0  0  0
  132.1417  126.2023  121.7950 H   0  0  0  0  0  0  0  0  0  0  0  0
  132.8373  127.3861  123.8750 H   0  0  0  0  0  0  0  0  0  0  0  0
  133.2285  126.1015  125.9717 H   0  0  0  0  0  0  0  0  0  0  0  0
  135.5287  121.9425  122.5741 H   0  0  0  0  0  0  0  0  0  0  0  0
  1  2  1  0
  2  3  1  0
  3  4  2  0
  3  5  1  0
  5  6  1  0
  6  7  2  0
  7  8  1  0
  8  9  2  0
  9 10  1  0
 10 11  1  0
 11 12  1  0
 12 13  1  0
 12 14  1  0
 14 15  1  0
 15 16  2  0
 16 17  1  0
 17 18  2  0
 18 19  1  0
 19 20  2  0
  9 21  1  0
 21  5  2  0
 20 15  1  0
  1 22  1  0
  1 23  1  0
  1 24  1  0
  6 25  1  0
  7 26  1  0
  8 27  1  0
 10 28  1  0
 10 29  1  0
 11 30  1  0
 11 31  1  0
 13 32  1  0
 13 33  1  0
 13 34  1  0
 14 35  1  0
 14 36  1  0
 16 37  1  0
 17 38  1  0
 18 39  1  0
 19 40  1  0
 20 41  1  0
 21 42  1  0
M  END
>  <meeko>  (3) 
{"is_sidechain": [false], "free_energy": -8.623, "intermolecular_energy": -10.271, "internal_energy": -2.571}

$$$$
seed-5302
     RDKit          3D

 42 43  0  0  0  0  0  0  0  0999 V2000
  129.2660  127.3110  127.5710 C   0  0  0  0  0  0  0  0  0  0  0  0
  130.4070  126.4640  127.7030 O   0  0  0  0  0  0  0  0  0  0  0  0
  131.3710  126.6910  126.7760 C   0  0  0  0  0  0  0  0  0  0  0  0
  131.9990  127.7300  126.6410 O   0  0  0  0  0  0  0  0  0  0  0  0
  131.5790  125.4870  125.9250 C   0  0  0  0  0  0  0  0  0  0  0  0
  131.3330  124.1880  126.3870 C   0  0  0  0  0  0  0  0  0  0  0  0
  131.5410  123.0940  125.5450 C   0  0  0  0  0  0  0  0  0  0  0  0
  131.9900  123.2890  124.2380 C   0  0  0  0  0  0  0  0  0  0  0  0
  132.2340  124.5810  123.7580 C   0  0  0  0  0  0  0  0  0  0  0  0
  132.7390  124.8000  122.3490 C   0  0  0  0  0  0  0  0  0  0  0  0
  134.0400  125.6230  122.3360 C   0  0  0  0  0  0  0  0  0  0  0  0
  135.3080  124.8710  122.2750 N   0  0  0  0  0  0  0  0  0  0  0  0
  136.1530  125.3100  121.1660 C   0  0  0  0  0  0  0  0  0  0  0  0
  136.0690  124.8720  123.5350 C   0  0  0  0  0  0  0  0  0  0  0  0
  135.6800  123.7590  124.4850 C   0  0  0  0  0  0  0  0  0  0  0  0
  135.3720  124.0450  125.8240 C   0  0  0  0  0  0  0  0  0  0  0  0
  135.0230  123.0200  126.7050 C   0  0  0  0  0  0  0  0  0  0  0  0
  134.9790  121.7010  126.2580 C   0  0  0  0  0  0  0  0  0  0  0  0
  135.2810  121.4040  124.9300 C   0  0  0  0  0  0  0  0  0  0  0  0
  135.6260  122.4270  124.0470 C   0  0  0  0  0  0  0  0  0  0  0  0
  132.0310  125.6770  124.6110 C   0  0  0  0  0  0  0  0  0  0  0  0
  128.8958  127.5858  128.5697 H   0  0  0  0  0  0  0  0  0  0  0  0
  129.5467  128.2212  127.0208 H   0  0  0  0  0  0  0  0  0  0  0  0
  128.4760  126.7789  127.0208 H   0  0  0  0  0  0  0  0  0  0  0  0
  130.9753  124.0294  127.4151 H   0  0  0  0  0  0  0  0  0  0  0  0
  131.3504  122.0750  125.9129 H   0  0  0  0  0  0  0  0  0  0  0  0
  132.1532  122.4220  123.5810 H   0  0  0  0  0  0  0  0  0  0  0  0
  132.9300  123.8225  121.8821 H   0  0  0  0  0  0  0  0  0  0  0  0
  131.9726  125.3582  121.7912 H   0  0  0  0  0  0  0  0  0  0  0  0
  134.0047  126.2856  121.4587 H   0  0  0  0  0  0  0  0  0  0  0  0
  134.0608  126.1396  123.3069 H   0  0  0  0  0  0  0  0  0  0  0  0
  137.0632  125.7829  121.5634 H   0  0  0  0  0  0  0  0  0  0  0  0
  136.4299  124.4417  120.5500 H   0  0  0  0  0  0  0  0  0  0  0  0
  135.6018  126.0358  120.5500 H   0  0  0  0  0  0  0  0  0  0  0  0
  137.1372  124.7656  123.2950 H   0  0  0  0  0  0  0  0  0  0  0  0
  135.8443  125.8208  124.0441 H   0  0  0  0  0  0  0  0  0  0  0  0
  135.4058  125.0846  126.1819 H   0  0  0  0  0  0  0  0  0  0  0  0
  134.7826  123.2537  127.7527 H   0  0  0  0  0  0  0  0  0  0  0  0
  134.7058  120.8937  126.9534 H   0  0  0  0  0  0  0  0  0  0  0  0
  135.2472  120.3623  124.5783 H   0  0  0  0  0  0  0  0  0  0  0  0
  135.8577  122.1877  122.9986 H   0  0  0  0  0  0  0  0  0  0  0  0
  132.2285  126.6954  124.2452 H   0  0  0  0  0  0  0  0  0  0  0  0
  1  2  1  0
  2  3  1  0
  3  4  2  0
  3  5  1  0
  5  6  1  0
  6  7  2  0
  7  8  1  0
  8  9  2  0
  9 10  1  0
 10 11  1  0
 11 12  1  0
 12 13  1  0
 12 14  1  0
 14 15  1  0
 15 16  2  0
 16 17  1  0
 17 18  2  0
 18 19  1  0
 19 20  2  0
  9 21  1  0
 21  5  2  0
 20 15  1  0
  1 22  1  0
  1 23  1  0
  1 24  1  0
  6 25  1  0
  7 26  1  0
  8 27  1  0
 10 28  1  0
 10 29  1  0
 11 30  1  0
 11 31  1  0
 13 32  1  0
 13 33  1  0
 13 34  1  0
 14 35  1  0
 14 36  1  0
 16 37  1  0
 17 38  1  0
 18 39  1  0
 19 40  1  0
 20 41  1  0
 21 42  1  0
M  END
>  <meeko>  (4) 
{"is_sidechain": [false], "free_energy": -8.503, "intermolecular_energy": -10.379, "internal_energy": -2.294}

$$$$
seed-5302
     RDKit          3D

 42 43  0  0  0  0  0  0  0  0999 V2000
  133.5900  121.2190  126.8430 C   0  0  0  0  0  0  0  0  0  0  0  0
  132.5870  121.5710  125.8900 O   0  0  0  0  0  0  0  0  0  0  0  0
  131.8420  122.6460  126.2480 C   0  0  0  0  0  0  0  0  0  0  0  0
  130.9630  122.6540  127.0950 O   0  0  0  0  0  0  0  0  0  0  0  0
  132.2400  123.8470  125.4620 C   0  0  0  0  0  0  0  0  0  0  0  0
  132.7140  125.0180  126.0660 C   0  0  0  0  0  0  0  0  0  0  0  0
  133.0770  126.1140  125.2820 C   0  0  0  0  0  0  0  0  0  0  0  0
  132.9730  126.0470  123.8910 C   0  0  0  0  0  0  0  0  0  0  0  0
  132.5070  124.8830  123.2700 C   0  0  0  0  0  0  0  0  0  0  0  0
  132.3720  124.8100  121.7660 C   0  0  0  0  0  0  0  0  0  0  0  0
  133.5290  125.5400  121.0590 C   0  0  0  0  0  0  0  0  0  0  0  0
  134.5270  124.7020  120.3680 N   0  0  0  0  0  0  0  0  0  0  0  0
  134.5950  124.9970  118.9380 C   0  0  0  0  0  0  0  0  0  0  0  0
  135.8710  124.7490  120.9690 C   0  0  0  0  0  0  0  0  0  0  0  0
  135.9320  124.1870  122.3720 C   0  0  0  0  0  0  0  0  0  0  0  0
  136.3460  124.9940  123.4430 C   0  0  0  0  0  0  0  0  0  0  0  0
  136.4150  124.4750  124.7370 C   0  0  0  0  0  0  0  0  0  0  0  0
  136.0720  123.1450  124.9740 C   0  0  0  0  0  0  0  0  0  0  0  0
  135.6580  122.3330  123.9190 C   0  0  0  0  0  0  0  0  0  0  0  0
  135.5850  122.8510  122.6260 C   0  0  0  0  0  0  0  0  0  0  0  0
  132.1360  123.7870  124.0650 C   0  0  0  0  0  0  0  0  0  0  0  0
  133.1944  121.3579  127.8600 H   0  0  0  0  0  0  0  0  0  0  0  0
  133.8768  120.1665  126.7017 H   0  0  0  0  0  0  0  0  0  0  0  0
  134.4716  121.8614  126.7017 H   0  0  0  0  0  0  0  0  0  0  0  0
  132.8005  125.0742  127.1612 H   0  0  0  0  0  0  0  0  0  0  0  0
  133.4459  127.0330  125.7609 H   0  0  0  0  0  0  0  0  0  0  0  0
  133.2594  126.9153  123.2794 H   0  0  0  0  0  0  0  0  0  0  0  0
  132.3743  123.7540  121.4578 H   0  0  0  0  0  0  0  0  0  0  0  0
  131.4293  125.2995  121.4801 H   0  0  0  0  0  0  0  0  0  0  0  0
  133.0876  126.2151  120.3111 H   0  0  0  0  0  0  0  0  0  0  0  0
  134.0855  126.0409  121.8649 H   0  0  0  0  0  0  0  0  0  0  0  0
  134.8400  126.0597  118.7941 H   0  0  0  0  0  0  0  0  0  0  0  0
  135.3733  124.3749  118.4719 H   0  0  0  0  0  0  0  0  0  0  0  0
  133.6229  124.7784  118.4719 H   0  0  0  0  0  0  0  0  0  0  0  0
  136.5559  124.1690  120.3329 H   0  0  0  0  0  0  0  0  0  0  0  0
  136.1553  125.8095  121.0359 H   0  0  0  0  0  0  0  0  0  0  0  0
  136.6183  126.0441  123.2612 H   0  0  0  0  0  0  0  0  0  0  0  0
  136.7401  125.1158  125.5699 H   0  0  0  0  0  0  0  0  0  0  0  0
  136.1280  122.7359  125.9936 H   0  0  0  0  0  0  0  0  0  0  0  0
  135.3887  121.2831  124.1065 H   0  0  0  0  0  0  0  0  0  0  0  0
  135.2527  122.2070  121.7984 H   0  0  0  0  0  0  0  0  0  0  0  0
  131.7595  122.8709  123.5866 H   0  0  0  0  0  0  0  0  0  0  0  0
  1  2  1  0
  2  3  1  0
  3  4  2  0
  3  5  1  0
  5  6  1  0
  6  7  2  0
  7  8  1  0
  8  9  2  0
  9 10  1  0
 10 11  1  0
 11 12  1  0
 12 13  1  0
 12 14  1  0
 14 15  1  0
 15 16  2  0
 16 17  1  0
 17 18  2  0
 18 19  1  0
 19 20  2  0
  9 21  1  0
 21  5  2  0
 20 15  1  0
  1 22  1  0
  1 23  1  0
  1 24  1  0
  6 25  1  0
  7 26  1  0
  8 27  1  0
 10 28  1  0
 10 29  1  0
 11 30  1  0
 11 31  1  0
 13 32  1  0
 13 33  1  0
 13 34  1  0
 14 35  1  0
 14 36  1  0
 16 37  1  0
 17 38  1  0
 18 39  1  0
 19 40  1  0
 20 41  1  0
 21 42  1  0
M  END
>  <meeko>  (5) 
{"is_sidechain": [false], "free_energy": -8.502, "intermolecular_energy": -10.154, "internal_energy": -2.519}

$$$$
seed-5302
     RDKit          3D

 42 43  0  0  0  0  0  0  0  0999 V2000
  134.6250  122.7890  116.6170 C   0  0  0  0  0  0  0  0  0  0  0  0
  135.2750  123.1640  117.8320 O   0  0  0  0  0  0  0  0  0  0  0  0
  134.7500  124.2680  118.4190 C   0  0  0  0  0  0  0  0  0  0  0  0
  134.2780  125.2300  117.8340 O   0  0  0  0  0  0  0  0  0  0  0  0
  134.8170  124.1570  119.9020 C   0  0  0  0  0  0  0  0  0  0  0  0
  135.6160  123.2070  120.5510 C   0  0  0  0  0  0  0  0  0  0  0  0
  135.6450  123.1500  121.9450 C   0  0  0  0  0  0  0  0  0  0  0  0
  134.8820  124.0410  122.7000 C   0  0  0  0  0  0  0  0  0  0  0  0
  134.0820  125.0010  122.0690 C   0  0  0  0  0  0  0  0  0  0  0  0
  133.2370  125.9570  122.8800 C   0  0  0  0  0  0  0  0  0  0  0  0
  132.4160  125.2170  123.9510 C   0  0  0  0  0  0  0  0  0  0  0  0
  132.7620  125.4790  125.3610 N   0  0  0  0  0  0  0  0  0  0  0  0
  131.9900  126.5880  125.9190 C   0  0  0  0  0  0  0  0  0  0  0  0
  132.6690  124.2960  126.2330 C   0  0  0  0  0  0  0  0  0  0  0  0
  133.7780  123.2890  126.0170 C   0  0  0  0  0  0  0  0  0  0  0  0
  133.4830  121.9920  125.5720 C   0  0  0  0  0  0  0  0  0  0  0  0
  134.5030  121.0570  125.3830 C   0  0  0  0  0  0  0  0  0  0  0  0
  135.8270  121.4100  125.6370 C   0  0  0  0  0  0  0  0  0  0  0  0
  136.1340  122.6960  126.0780 C   0  0  0  0  0  0  0  0  0  0  0  0
  135.1160  123.6320  126.2650 C   0  0  0  0  0  0  0  0  0  0  0  0
  134.0510  125.0490  120.6670 C   0  0  0  0  0  0  0  0  0  0  0  0
  133.6938  122.2518  116.8500 H   0  0  0  0  0  0  0  0  0  0  0  0
  134.3914  123.6911  116.0325 H   0  0  0  0  0  0  0  0  0  0  0  0
  135.2891  122.1352  116.0325 H   0  0  0  0  0  0  0  0  0  0  0  0
  136.2220  122.5042  119.9604 H   0  0  0  0  0  0  0  0  0  0  0  0
  136.2715  122.4001  122.4501 H   0  0  0  0  0  0  0  0  0  0  0  0
  134.9092  123.9889  123.7984 H   0  0  0  0  0  0  0  0  0  0  0  0
  133.8966  126.6848  123.3752 H   0  0  0  0  0  0  0  0  0  0  0  0
  132.5375  126.4623  122.1978 H   0  0  0  0  0  0  0  0  0  0  0  0
  131.3610  125.4953  123.8112 H   0  0  0  0  0  0  0  0  0  0  0  0
  132.6395  124.1512  123.7958 H   0  0  0  0  0  0  0  0  0  0  0  0
  132.0225  126.5413  127.0175 H   0  0  0  0  0  0  0  0  0  0  0  0
  132.4204  127.5417  125.5797 H   0  0  0  0  0  0  0  0  0  0  0  0
  130.9462  126.5155  125.5797 H   0  0  0  0  0  0  0  0  0  0  0  0
  132.7055  124.6329  127.2795 H   0  0  0  0  0  0  0  0  0  0  0  0
  131.7241  123.7897  125.9863 H   0  0  0  0  0  0  0  0  0  0  0  0
  132.4394  121.7089  125.3702 H   0  0  0  0  0  0  0  0  0  0  0  0
  134.2614  120.0423  125.0338 H   0  0  0  0  0  0  0  0  0  0  0  0
  136.6303  120.6732  125.4893 H   0  0  0  0  0  0  0  0  0  0  0  0
  137.1794  122.9733  126.2788 H   0  0  0  0  0  0  0  0  0  0  0  0
  135.3643  124.6467  126.6095 H   0  0  0  0  0  0  0  0  0  0  0  0
  133.4190  125.7944  120.1622 H   0  0  0  0  0  0  0  0  0  0  0  0
  1  2  1  0
  2  3  1  0
  3  4  2  0
  3  5  1  0
  5  6  1  0
  6  7  2  0
  7  8  1  0
  8  9  2  0
  9 10  1  0
 10 11  1  0
 11 12  1  0
 12 13  1  0
 12 14  1  0
 14 15  1  0
 15 16  2  0
 16 17  1  0
 17 18  2  0
 18 19  1  0
 19 20  2  0
  9 21  1  0
 21  5  2  0
 20 15  1  0
  1 22  1  0
  1 23  1  0
  1 24  1  0
  6 25  1  0
  7 26  1  0
  8 27  1  0
 10 28  1  0
 10 29  1  0
 11 30  1  0
 11 31  1  0
 13 32  1  0
 13 33  1  0
 13 34  1  0
 14 35  1  0
 14 36  1  0
 16 37  1  0
 17 38  1  0
 18 39  1  0
 19 40  1  0
 20 41  1  0
 21 42  1  0
M  END
>  <meeko>  (6) 
{"is_sidechain": [false], "free_energy": -8.398, "intermolecular_energy": -11.188, "internal_energy": -1.338}

$$$$
seed-5302
     RDKit          3D

 42 43  0  0  0  0  0  0  0  0999 V2000
  136.7540  127.4570  125.3180 C   0  0  0  0  0  0  0  0  0  0  0  0
  135.7140  126.7200  124.6750 O   0  0  0  0  0  0  0  0  0  0  0  0
  135.8470  126.6430  123.3270 C   0  0  0  0  0  0  0  0  0  0  0  0
  136.0740  127.5800  122.5790 O   0  0  0  0  0  0  0  0  0  0  0  0
  135.6820  125.2380  122.8620 C   0  0  0  0  0  0  0  0  0  0  0  0
  135.4910  124.9090  121.5140 C   0  0  0  0  0  0  0  0  0  0  0  0
  135.3450  123.5740  121.1320 C   0  0  0  0  0  0  0  0  0  0  0  0
  135.3930  122.5610  122.0900 C   0  0  0  0  0  0  0  0  0  0  0  0
  135.5890  122.8710  123.4410 C   0  0  0  0  0  0  0  0  0  0  0  0
  135.6220  121.7790  124.4880 C   0  0  0  0  0  0  0  0  0  0  0  0
  134.9210  122.2190  125.7860 C   0  0  0  0  0  0  0  0  0  0  0  0
  133.4580  122.0410  125.8500 N   0  0  0  0  0  0  0  0  0  0  0  0
  133.0760  120.9570  126.7530 C   0  0  0  0  0  0  0  0  0  0  0  0
  132.7160  123.2700  126.1770 C   0  0  0  0  0  0  0  0  0  0  0  0
  132.4340  124.1510  124.9780 C   0  0  0  0  0  0  0  0  0  0  0  0
  132.1710  123.5800  123.7240 C   0  0  0  0  0  0  0  0  0  0  0  0
  131.9210  124.3890  122.6140 C   0  0  0  0  0  0  0  0  0  0  0  0
  131.9340  125.7760  122.7470 C   0  0  0  0  0  0  0  0  0  0  0  0
  132.1930  126.3560  123.9870 C   0  0  0  0  0  0  0  0  0  0  0  0
  132.4390  125.5490  125.0980 C   0  0  0  0  0  0  0  0  0  0  0  0
  135.7270  124.2150  123.8200 C   0  0  0  0  0  0  0  0  0  0  0  0
  136.6400  127.3762  126.4091 H   0  0  0  0  0  0  0  0  0  0  0  0
  137.7310  127.0485  125.0202 H   0  0  0  0  0  0  0  0  0  0  0  0
  136.6924  128.5141  125.0202 H   0  0  0  0  0  0  0  0  0  0  0  0
  135.4559  125.7041  120.7547 H   0  0  0  0  0  0  0  0  0  0  0  0
  135.1917  123.3203  120.0727 H   0  0  0  0  0  0  0  0  0  0  0  0
  135.2761  121.5116  121.7817 H   0  0  0  0  0  0  0  0  0  0  0  0
  135.1128  120.8883  124.0913 H   0  0  0  0  0  0  0  0  0  0  0  0
  136.6738  121.5578  124.7222 H   0  0  0  0  0  0  0  0  0  0  0  0
  135.3619  121.6431  126.6130 H   0  0  0  0  0  0  0  0  0  0  0  0
  135.0794  123.3061  125.8421 H   0  0  0  0  0  0  0  0  0  0  0  0
  133.1931  121.2894  127.7950 H   0  0  0  0  0  0  0  0  0  0  0  0
  132.0266  120.6814  126.5718 H   0  0  0  0  0  0  0  0  0  0  0  0
  133.7208  120.0844  126.5718 H   0  0  0  0  0  0  0  0  0  0  0  0
  131.7557  122.9848  126.6313 H   0  0  0  0  0  0  0  0  0  0  0  0
  133.3488  123.8537  126.8617 H   0  0  0  0  0  0  0  0  0  0  0  0
  132.1617  122.4855  123.6143 H   0  0  0  0  0  0  0  0  0  0  0  0
  131.7139  123.9318  121.6352 H   0  0  0  0  0  0  0  0  0  0  0  0
  131.7396  126.4137  121.8720 H   0  0  0  0  0  0  0  0  0  0  0  0
  132.2035  127.4511  124.0901 H   0  0  0  0  0  0  0  0  0  0  0  0
  132.6384  126.0122  126.0756 H   0  0  0  0  0  0  0  0  0  0  0  0
  135.8721  124.4689  124.8804 H   0  0  0  0  0  0  0  0  0  0  0  0
  1  2  1  0
  2  3  1  0
  3  4  2  0
  3  5  1  0
  5  6  1  0
  6  7  2  0
  7  8  1  0
  8  9  2  0
  9 10  1  0
 10 11  1  0
 11 12  1  0
 12 13  1  0
 12 14  1  0
 14 15  1  0
 15 16  2  0
 16 17  1  0
 17 18  2  0
 18 19  1  0
 19 20  2  0
  9 21  1  0
 21  5  2  0
 20 15  1  0
  1 22  1  0
  1 23  1  0
  1 24  1  0
  6 25  1  0
  7 26  1  0
  8 27  1  0
 10 28  1  0
 10 29  1  0
 11 30  1  0
 11 31  1  0
 13 32  1  0
 13 33  1  0
 13 34  1  0
 14 35  1  0
 14 36  1  0
 16 37  1  0
 17 38  1  0
 18 39  1  0
 19 40  1  0
 20 41  1  0
 21 42  1  0
M  END
>  <meeko>  (7) 
{"is_sidechain": [false], "free_energy": -8.274, "intermolecular_energy": -9.94, "internal_energy": -2.412}

$$$$
seed-5302
     RDKit          3D

 42 43  0  0  0  0  0  0  0  0999 V2000
  136.4560  127.8560  125.4920 C   0  0  0  0  0  0  0  0  0  0  0  0
  136.6040  127.0280  124.3380 O   0  0  0  0  0  0  0  0  0  0  0  0
  136.9690  125.7520  124.6180 C   0  0  0  0  0  0  0  0  0  0  0  0
  137.8710  125.4180  125.3700 O   0  0  0  0  0  0  0  0  0  0  0  0
  136.1100  124.7850  123.8800 C   0  0  0  0  0  0  0  0  0  0  0  0
  136.4190  123.4220  123.7900 C   0  0  0  0  0  0  0  0  0  0  0  0
  135.5770  122.5580  123.0880 C   0  0  0  0  0  0  0  0  0  0  0  0
  134.4210  123.0460  122.4770 C   0  0  0  0  0  0  0  0  0  0  0  0
  134.0940  124.4050  122.5620 C   0  0  0  0  0  0  0  0  0  0  0  0
  132.8540  124.9450  121.8860 C   0  0  0  0  0  0  0  0  0  0  0  0
  131.6090  124.7860  122.7780 C   0  0  0  0  0  0  0  0  0  0  0  0
  131.7720  125.0770  124.2150 N   0  0  0  0  0  0  0  0  0  0  0  0
  131.0700  126.2960  124.6110 C   0  0  0  0  0  0  0  0  0  0  0  0
  131.4050  123.9590  125.1000 C   0  0  0  0  0  0  0  0  0  0  0  0
  132.5930  123.2520  125.7160 C   0  0  0  0  0  0  0  0  0  0  0  0
  133.5650  123.9790  126.4200 C   0  0  0  0  0  0  0  0  0  0  0  0
  134.6680  123.3310  126.9800 C   0  0  0  0  0  0  0  0  0  0  0  0
  134.8110  121.9520  126.8410 C   0  0  0  0  0  0  0  0  0  0  0  0
  133.8520  121.2180  126.1450 C   0  0  0  0  0  0  0  0  0  0  0  0
  132.7470  121.8630  125.5880 C   0  0  0  0  0  0  0  0  0  0  0  0
  134.9480  125.2700  123.2620 C   0  0  0  0  0  0  0  0  0  0  0  0
  136.5655  127.2436  126.3992 H   0  0  0  0  0  0  0  0  0  0  0  0
  137.2284  128.6392  125.4829 H   0  0  0  0  0  0  0  0  0  0  0  0
  135.4601  128.3231  125.4829 H   0  0  0  0  0  0  0  0  0  0  0  0
  137.3268  123.0317  124.2733 H   0  0  0  0  0  0  0  0  0  0  0  0
  135.8254  121.4888  123.0161 H   0  0  0  0  0  0  0  0  0  0  0  0
  133.7627  122.3589  121.9252 H   0  0  0  0  0  0  0  0  0  0  0  0
  133.0027  126.0127  121.6672 H   0  0  0  0  0  0  0  0  0  0  0  0
  132.6899  124.3741  120.9602 H   0  0  0  0  0  0  0  0  0  0  0  0
  130.8335  125.4620  122.3886 H   0  0  0  0  0  0  0  0  0  0  0  0
  131.3587  123.7159  122.7303 H   0  0  0  0  0  0  0  0  0  0  0  0
  131.0341  126.3583  125.7086 H   0  0  0  0  0  0  0  0  0  0  0  0
  131.6021  127.1718  124.2112 H   0  0  0  0  0  0  0  0  0  0  0  0
  130.0454  126.2754  124.2112 H   0  0  0  0  0  0  0  0  0  0  0  0
  130.7758  124.3518  125.9123 H   0  0  0  0  0  0  0  0  0  0  0  0
  130.8782  123.2190  124.4796 H   0  0  0  0  0  0  0  0  0  0  0  0
  133.4573  125.0680  126.5317 H   0  0  0  0  0  0  0  0  0  0  0  0
  135.4242  123.9094  127.5310 H   0  0  0  0  0  0  0  0  0  0  0  0
  135.6810  121.4424  127.2807 H   0  0  0  0  0  0  0  0  0  0  0  0
  133.9663  120.1295  126.0347 H   0  0  0  0  0  0  0  0  0  0  0  0
  131.9906  121.2780  125.0442 H   0  0  0  0  0  0  0  0  0  0  0  0
  134.7037  126.3406  123.3270 H   0  0  0  0  0  0  0  0  0  0  0  0
  1  2  1  0
  2  3  1  0
  3  4  2  0
  3  5  1  0
  5  6  1  0
  6  7  2  0
  7  8  1  0
  8  9  2  0
  9 10  1  0
 10 11  1  0
 11 12  1  0
 12 13  1  0
 12 14  1  0
 14 15  1  0
 15 16  2  0
 16 17  1  0
 17 18  2  0
 18 19  1  0
 19 20  2  0
  9 21  1  0
 21  5  2  0
 20 15  1  0
  1 22  1  0
  1 23  1  0
  1 24  1  0
  6 25  1  0
  7 26  1  0
  8 27  1  0
 10 28  1  0
 10 29  1  0
 11 30  1  0
 11 31  1  0
 13 32  1  0
 13 33  1  0
 13 34  1  0
 14 35  1  0
 14 36  1  0
 16 37  1  0
 17 38  1  0
 18 39  1  0
 19 40  1  0
 20 41  1  0
 21 42  1  0
M  END
>  <meeko>  (8) 
{"is_sidechain": [false], "free_energy": -8.124, "intermolecular_energy": -9.736, "internal_energy": -2.404}

$$$$
seed-5302
     RDKit          3D

 42 43  0  0  0  0  0  0  0  0999 V2000
  132.6250  124.1310  116.6280 C   0  0  0  0  0  0  0  0  0  0  0  0
  133.8130  124.6650  117.2110 O   0  0  0  0  0  0  0  0  0  0  0  0
  134.7650  123.7350  117.4690 C   0  0  0  0  0  0  0  0  0  0  0  0
  135.2730  122.9880  116.6460 O   0  0  0  0  0  0  0  0  0  0  0  0
  135.1280  123.7380  118.9130 C   0  0  0  0  0  0  0  0  0  0  0  0
  135.8720  122.7090  119.5040 C   0  0  0  0  0  0  0  0  0  0  0  0
  136.1880  122.7650  120.8630 C   0  0  0  0  0  0  0  0  0  0  0  0
  135.7680  123.8460  121.6380 C   0  0  0  0  0  0  0  0  0  0  0  0
  135.0280  124.8860  121.0620 C   0  0  0  0  0  0  0  0  0  0  0  0
  134.5530  126.0520  121.8990 C   0  0  0  0  0  0  0  0  0  0  0  0
  135.7080  126.6850  122.6960 C   0  0  0  0  0  0  0  0  0  0  0  0
  135.8990  126.2210  124.0830 N   0  0  0  0  0  0  0  0  0  0  0  0
  136.3500  127.2960  124.9640 C   0  0  0  0  0  0  0  0  0  0  0  0
  134.7250  125.5420  124.6560 C   0  0  0  0  0  0  0  0  0  0  0  0
  134.9440  124.0690  124.9280 C   0  0  0  0  0  0  0  0  0  0  0  0
  136.2430  123.5540  125.0430 C   0  0  0  0  0  0  0  0  0  0  0  0
  136.4490  122.1940  125.2820 C   0  0  0  0  0  0  0  0  0  0  0  0
  135.3580  121.3360  125.4070 C   0  0  0  0  0  0  0  0  0  0  0  0
  134.0610  121.8350  125.2950 C   0  0  0  0  0  0  0  0  0  0  0  0
  133.8540  123.1950  125.0600 C   0  0  0  0  0  0  0  0  0  0  0  0
  134.7070  124.8210  119.6970 C   0  0  0  0  0  0  0  0  0  0  0  0
  131.9333  123.8201  117.4248 H   0  0  0  0  0  0  0  0  0  0  0  0
  132.1447  124.8998  116.0049 H   0  0  0  0  0  0  0  0  0  0  0  0
  132.8812  123.2614  116.0049 H   0  0  0  0  0  0  0  0  0  0  0  0
  136.2079  121.8555  118.8967 H   0  0  0  0  0  0  0  0  0  0  0  0
  136.7703  121.9536  121.3241 H   0  0  0  0  0  0  0  0  0  0  0  0
  136.0196  123.8818  122.7082 H   0  0  0  0  0  0  0  0  0  0  0  0
  134.1175  126.8137  121.2356 H   0  0  0  0  0  0  0  0  0  0  0  0
  133.8047  125.6799  122.6143 H   0  0  0  0  0  0  0  0  0  0  0  0
  136.6396  126.4825  122.1473 H   0  0  0  0  0  0  0  0  0  0  0  0
  135.4435  127.7490  122.7851 H   0  0  0  0  0  0  0  0  0  0  0  0
  136.2213  126.9892  126.0125 H   0  0  0  0  0  0  0  0  0  0  0  0
  137.4123  127.5066  124.7714 H   0  0  0  0  0  0  0  0  0  0  0  0
  135.7559  128.2015  124.7714 H   0  0  0  0  0  0  0  0  0  0  0  0
  134.4677  126.0355  125.6048 H   0  0  0  0  0  0  0  0  0  0  0  0
  133.9181  125.6141  123.9119 H   0  0  0  0  0  0  0  0  0  0  0  0
  137.1072  124.2273  124.9441 H   0  0  0  0  0  0  0  0  0  0  0  0
  137.4721  121.7999  125.3716 H   0  0  0  0  0  0  0  0  0  0  0  0
  135.5203  120.2643  125.5942 H   0  0  0  0  0  0  0  0  0  0  0  0
  133.2006  121.1566  125.3919 H   0  0  0  0  0  0  0  0  0  0  0  0
  132.8287  123.5848  124.9776 H   0  0  0  0  0  0  0  0  0  0  0  0
  134.1186  125.6289  119.2375 H   0  0  0  0  0  0  0  0  0  0  0  0
  1  2  1  0
  2  3  1  0
  3  4  2  0
  3  5  1  0
  5  6  1  0
  6  7  2  0
  7  8  1  0
  8  9  2  0
  9 10  1  0
 10 11  1  0
 11 12  1  0
 12 13  1  0
 12 14  1  0
 14 15  1  0
 15 16  2  0
 16 17  1  0
 17 18  2  0
 18 19  1  0
 19 20  2  0
  9 21  1  0
 21  5  2  0
 20 15  1  0
  1 22  1  0
  1 23  1  0
  1 24  1  0
  6 25  1  0
  7 26  1  0
  8 27  1  0
 10 28  1  0
 10 29  1  0
 11 30  1  0
 11 31  1  0
 13 32  1  0
 13 33  1  0
 13 34  1  0
 14 35  1  0
 14 36  1  0
 16 37  1  0
 17 38  1  0
 18 39  1  0
 19 40  1  0
 20 41  1  0
 21 42  1  0
M  END
>  <meeko>  (9) 
{"is_sidechain": [false], "free_energy": -8.114, "intermolecular_energy": -11.178, "internal_energy": -0.948}

$$$$
seed-5302
     RDKit          3D

 42 43  0  0  0  0  0  0  0  0999 V2000
  137.3850  126.2350  125.6650 C   0  0  0  0  0  0  0  0  0  0  0  0
  137.1730  125.9810  124.2770 O   0  0  0  0  0  0  0  0  0  0  0  0
  136.5150  124.8230  124.0240 C   0  0  0  0  0  0  0  0  0  0  0  0
  136.7170  123.7530  124.5760 O   0  0  0  0  0  0  0  0  0  0  0  0
  135.4860  125.0220  122.9650 C   0  0  0  0  0  0  0  0  0  0  0  0
  135.7980  125.0000  121.6000 C   0  0  0  0  0  0  0  0  0  0  0  0
  134.7940  125.1890  120.6490 C   0  0  0  0  0  0  0  0  0  0  0  0
  133.4750  125.3980  121.0530 C   0  0  0  0  0  0  0  0  0  0  0  0
  133.1440  125.4170  122.4130 C   0  0  0  0  0  0  0  0  0  0  0  0
  131.7200  125.6610  122.8590 C   0  0  0  0  0  0  0  0  0  0  0  0
  131.6050  125.6910  124.3940 C   0  0  0  0  0  0  0  0  0  0  0  0
  130.2840  126.0240  124.9600 N   0  0  0  0  0  0  0  0  0  0  0  0
  130.0540  125.3590  126.2410 C   0  0  0  0  0  0  0  0  0  0  0  0
  130.0260  127.4690  125.0750 C   0  0  0  0  0  0  0  0  0  0  0  0
  129.1810  128.0300  123.9520 C   0  0  0  0  0  0  0  0  0  0  0  0
  129.4030  129.3320  123.4790 C   0  0  0  0  0  0  0  0  0  0  0  0
  128.6170  129.8570  122.4510 C   0  0  0  0  0  0  0  0  0  0  0  0
  127.6020  129.0860  121.8870 C   0  0  0  0  0  0  0  0  0  0  0  0
  127.3720  127.7910  122.3470 C   0  0  0  0  0  0  0  0  0  0  0  0
  128.1590  127.2630  123.3720 C   0  0  0  0  0  0  0  0  0  0  0  0
  134.1590  125.2340  123.3650 C   0  0  0  0  0  0  0  0  0  0  0  0
  136.7930  125.5258  126.2621 H   0  0  0  0  0  0  0  0  0  0  0  0
  138.4522  126.1120  125.9014 H   0  0  0  0  0  0  0  0  0  0  0  0
  137.0731  127.2630  125.9014 H   0  0  0  0  0  0  0  0  0  0  0  0
  136.8362  124.8335  121.2767 H   0  0  0  0  0  0  0  0  0  0  0  0
  135.0434  125.1731  119.5778 H   0  0  0  0  0  0  0  0  0  0  0  0
  132.6898  125.5489  120.2976 H   0  0  0  0  0  0  0  0  0  0  0  0
  131.3802  126.6267  122.4565 H   0  0  0  0  0  0  0  0  0  0  0  0
  131.0954  124.8374  122.4829 H   0  0  0  0  0  0  0  0  0  0  0  0
  131.8844  124.6947  124.7673 H   0  0  0  0  0  0  0  0  0  0  0  0
  132.2675  126.5086  124.7143 H   0  0  0  0  0  0  0  0  0  0  0  0
  130.2934  126.0512  127.0617 H   0  0  0  0  0  0  0  0  0  0  0  0
  128.9989  125.0562  126.3127 H   0  0  0  0  0  0  0  0  0  0  0  0
  130.6966  124.4691  126.3127 H   0  0  0  0  0  0  0  0  0  0  0  0
  129.5054  127.6537  126.0262 H   0  0  0  0  0  0  0  0  0  0  0  0
  131.0021  127.9737  125.0242 H   0  0  0  0  0  0  0  0  0  0  0  0
  130.2026  129.9443  123.9214 H   0  0  0  0  0  0  0  0  0  0  0  0
  128.7989  130.8788  122.0864 H   0  0  0  0  0  0  0  0  0  0  0  0
  126.9821  129.5002  121.0782 H   0  0  0  0  0  0  0  0  0  0  0  0
  126.5696  127.1842  121.9021 H   0  0  0  0  0  0  0  0  0  0  0  0
  127.9767  126.2382  123.7276 H   0  0  0  0  0  0  0  0  0  0  0  0
  133.9107  125.2572  124.4364 H   0  0  0  0  0  0  0  0  0  0  0  0
  1  2  1  0
  2  3  1  0
  3  4  2  0
  3  5  1  0
  5  6  1  0
  6  7  2  0
  7  8  1  0
  8  9  2  0
  9 10  1  0
 10 11  1  0
 11 12  1  0
 12 13  1  0
 12 14  1  0
 14 15  1  0
 15 16  2  0
 16 17  1  0
 17 18  2  0
 18 19  1  0
 19 20  2  0
  9 21  1  0
 21  5  2  0
 20 15  1  0
  1 22  1  0
  1 23  1  0
  1 24  1  0
  6 25  1  0
  7 26  1  0
  8 27  1  0
 10 28  1  0
 10 29  1  0
 11 30  1  0
 11 31  1  0
 13 32  1  0
 13 33  1  0
 13 34  1  0
 14 35  1  0
 14 36  1  0
 16 37  1  0
 17 38  1  0
 18 39  1  0
 19 40  1  0
 20 41  1  0
 21 42  1  0
M  END
>  <meeko>  (10) 
{"is_sidechain": [false], "free_energy": -7.971, "intermolecular_energy": -11.241, "internal_energy": -0.683}

$$$$
seed-5302
     RDKit          3D

 42 43  0  0  0  0  0  0  0  0999 V2000
  130.6520  128.1640  127.9690 C   0  0  0  0  0  0  0  0  0  0  0  0
  131.3300  127.1700  127.2000 O   0  0  0  0  0  0  0  0  0  0  0  0
  131.1900  127.3220  125.8600 C   0  0  0  0  0  0  0  0  0  0  0  0
  130.7670  128.3180  125.2950 O   0  0  0  0  0  0  0  0  0  0  0  0
  131.6310  126.0930  125.1420 C   0  0  0  0  0  0  0  0  0  0  0  0
  131.6620  126.0080  123.7440 C   0  0  0  0  0  0  0  0  0  0  0  0
  132.0870  124.8330  123.1230 C   0  0  0  0  0  0  0  0  0  0  0  0
  132.4870  123.7380  123.8900 C   0  0  0  0  0  0  0  0  0  0  0  0
  132.4680  123.8080  125.2890 C   0  0  0  0  0  0  0  0  0  0  0  0
  132.8820  122.6190  126.1270 C   0  0  0  0  0  0  0  0  0  0  0  0
  134.3200  122.7720  126.6540 C   0  0  0  0  0  0  0  0  0  0  0  0
  135.3130  121.7870  126.1860 N   0  0  0  0  0  0  0  0  0  0  0  0
  134.7230  120.7960  125.2890 C   0  0  0  0  0  0  0  0  0  0  0  0
  136.5120  122.3850  125.5760 C   0  0  0  0  0  0  0  0  0  0  0  0
  136.2080  123.3480  124.4490 C   0  0  0  0  0  0  0  0  0  0  0  0
  136.0290  122.8750  123.1400 C   0  0  0  0  0  0  0  0  0  0  0  0
  135.7600  123.7610  122.0950 C   0  0  0  0  0  0  0  0  0  0  0  0
  135.6670  125.1290  122.3480 C   0  0  0  0  0  0  0  0  0  0  0  0
  135.8420  125.6120  123.6440 C   0  0  0  0  0  0  0  0  0  0  0  0
  136.1070  124.7270  124.6900 C   0  0  0  0  0  0  0  0  0  0  0  0
  132.0320  124.9890  125.9080 C   0  0  0  0  0  0  0  0  0  0  0  0
  130.7926  127.9578  129.0403 H   0  0  0  0  0  0  0  0  0  0  0  0
  131.0625  129.1560  127.7295 H   0  0  0  0  0  0  0  0  0  0  0  0
  129.5786  128.1438  127.7295 H   0  0  0  0  0  0  0  0  0  0  0  0
  131.3507  126.8693  123.1347 H   0  0  0  0  0  0  0  0  0  0  0  0
  132.1068  124.7696  122.0250 H   0  0  0  0  0  0  0  0  0  0  0  0
  132.8192  122.8145  123.3932 H   0  0  0  0  0  0  0  0  0  0  0  0
  132.1960  122.5284  126.9821 H   0  0  0  0  0  0  0  0  0  0  0  0
  132.8408  121.7203  125.4941 H   0  0  0  0  0  0  0  0  0  0  0  0
  134.6773  123.7695  126.3585 H   0  0  0  0  0  0  0  0  0  0  0  0
  134.2454  122.6088  127.7393 H   0  0  0  0  0  0  0  0  0  0  0  0
  134.2492  120.0002  125.8825 H   0  0  0  0  0  0  0  0  0  0  0  0
  133.9661  121.2803  124.6546 H   0  0  0  0  0  0  0  0  0  0  0  0
  135.5095  120.3614  124.6546 H   0  0  0  0  0  0  0  0  0  0  0  0
  137.0642  122.9283  126.3570 H   0  0  0  0  0  0  0  0  0  0  0  0
  137.0969  121.5599  125.1435 H   0  0  0  0  0  0  0  0  0  0  0  0
  136.1013  121.7966  122.9354 H   0  0  0  0  0  0  0  0  0  0  0  0
  135.6215  123.3799  121.0725 H   0  0  0  0  0  0  0  0  0  0  0  0
  135.4555  125.8273  121.5248 H   0  0  0  0  0  0  0  0  0  0  0  0
  135.7711  126.6917  123.8423 H   0  0  0  0  0  0  0  0  0  0  0  0
  136.2378  125.1133  125.7116 H   0  0  0  0  0  0  0  0  0  0  0  0
  132.0044  125.0497  127.0060 H   0  0  0  0  0  0  0  0  0  0  0  0
  1  2  1  0
  2  3  1  0
  3  4  2  0
  3  5  1  0
  5  6  1  0
  6  7  2  0
  7  8  1  0
  8  9  2  0
  9 10  1  0
 10 11  1  0
 11 12  1  0
 12 13  1  0
 12 14  1  0
 14 15  1  0
 15 16  2  0
 16 17  1  0
 17 18  2  0
 18 19  1  0
 19 20  2  0
  9 21  1  0
 21  5  2  0
 20 15  1  0
  1 22  1  0
  1 23  1  0
  1 24  1  0
  6 25  1  0
  7 26  1  0
  8 27  1  0
 10 28  1  0
 10 29  1  0
 11 30  1  0
 11 31  1  0
 13 32  1  0
 13 33  1  0
 13 34  1  0
 14 35  1  0
 14 36  1  0
 16 37  1  0
 17 38  1  0
 18 39  1  0
 19 40  1  0
 20 41  1  0
 21 42  1  0
M  END
>  <meeko>  (11) 
{"is_sidechain": [false], "free_energy": -7.701, "intermolecular_energy": -9.89, "internal_energy": -1.654}

$$$$
seed-5302
     RDKit          3D

 42 43  0  0  0  0  0  0  0  0999 V2000
  135.2720  123.2300  126.9340 C   0  0  0  0  0  0  0  0  0  0  0  0
  135.9890  122.6000  125.8710 O   0  0  0  0  0  0  0  0  0  0  0  0
  135.1980  121.9380  124.9910 C   0  0  0  0  0  0  0  0  0  0  0  0
  134.8400  120.7740  125.0890 O   0  0  0  0  0  0  0  0  0  0  0  0
  134.8060  122.8270  123.8630 C   0  0  0  0  0  0  0  0  0  0  0  0
  135.5750  122.9490  122.6980 C   0  0  0  0  0  0  0  0  0  0  0  0
  135.1590  123.7950  121.6690 C   0  0  0  0  0  0  0  0  0  0  0  0
  133.9740  124.5220  121.7930 C   0  0  0  0  0  0  0  0  0  0  0  0
  133.1900  124.4080  122.9470 C   0  0  0  0  0  0  0  0  0  0  0  0
  131.9150  125.2060  123.0970 C   0  0  0  0  0  0  0  0  0  0  0  0
  131.5600  125.4330  124.5780 C   0  0  0  0  0  0  0  0  0  0  0  0
  130.2230  125.9840  124.8700 N   0  0  0  0  0  0  0  0  0  0  0  0
  129.6590  125.4340  126.1000 C   0  0  0  0  0  0  0  0  0  0  0  0
  130.1720  127.4560  124.8920 C   0  0  0  0  0  0  0  0  0  0  0  0
  129.2540  128.0510  123.8460 C   0  0  0  0  0  0  0  0  0  0  0  0
  128.2120  127.2870  123.2990 C   0  0  0  0  0  0  0  0  0  0  0  0
  127.3700  127.8290  122.3260 C   0  0  0  0  0  0  0  0  0  0  0  0
  127.5620  129.1390  121.8900 C   0  0  0  0  0  0  0  0  0  0  0  0
  128.5920  129.9090  122.4260 C   0  0  0  0  0  0  0  0  0  0  0  0
  129.4320  129.3700  123.4010 C   0  0  0  0  0  0  0  0  0  0  0  0
  133.6170  123.5610  123.9820 C   0  0  0  0  0  0  0  0  0  0  0  0
  135.6677  122.8823  127.8997 H   0  0  0  0  0  0  0  0  0  0  0  0
  135.3910  124.3211  126.8604 H   0  0  0  0  0  0  0  0  0  0  0  0
  134.2053  122.9717  126.8604 H   0  0  0  0  0  0  0  0  0  0  0  0
  136.5086  122.3767  122.5943 H   0  0  0  0  0  0  0  0  0  0  0  0
  135.7670  123.8892  120.7572 H   0  0  0  0  0  0  0  0  0  0  0  0
  133.6542  125.1888  120.9787 H   0  0  0  0  0  0  0  0  0  0  0  0
  132.0451  126.1823  122.6073 H   0  0  0  0  0  0  0  0  0  0  0  0
  131.0966  124.6385  122.6299 H   0  0  0  0  0  0  0  0  0  0  0  0
  131.6380  124.4627  125.0903 H   0  0  0  0  0  0  0  0  0  0  0  0
  132.2672  126.2001  124.9266 H   0  0  0  0  0  0  0  0  0  0  0  0
  130.1427  125.9057  126.9681 H   0  0  0  0  0  0  0  0  0  0  0  0
  128.5777  125.6341  126.1291 H   0  0  0  0  0  0  0  0  0  0  0  0
  129.8318  124.3481  126.1291 H   0  0  0  0  0  0  0  0  0  0  0  0
  129.8209  127.7761  125.8841 H   0  0  0  0  0  0  0  0  0  0  0  0
  131.1875  127.8152  124.6688 H   0  0  0  0  0  0  0  0  0  0  0  0
  128.0572  126.2526  123.6395 H   0  0  0  0  0  0  0  0  0  0  0  0
  126.5554  127.2224  121.9036 H   0  0  0  0  0  0  0  0  0  0  0  0
  126.8997  129.5652  121.1221 H   0  0  0  0  0  0  0  0  0  0  0  0
  128.7430  130.9423  122.0804 H   0  0  0  0  0  0  0  0  0  0  0  0
  130.2405  129.9840  123.8244 H   0  0  0  0  0  0  0  0  0  0  0  0
  133.0122  123.4721  124.8965 H   0  0  0  0  0  0  0  0  0  0  0  0
  1  2  1  0
  2  3  1  0
  3  4  2  0
  3  5  1  0
  5  6  1  0
  6  7  2  0
  7  8  1  0
  8  9  2  0
  9 10  1  0
 10 11  1  0
 11 12  1  0
 12 13  1  0
 12 14  1  0
 14 15  1  0
 15 16  2  0
 16 17  1  0
 17 18  2  0
 18 19  1  0
 19 20  2  0
  9 21  1  0
 21  5  2  0
 20 15  1  0
  1 22  1  0
  1 23  1  0
  1 24  1  0
  6 25  1  0
  7 26  1  0
  8 27  1  0
 10 28  1  0
 10 29  1  0
 11 30  1  0
 11 31  1  0
 13 32  1  0
 13 33  1  0
 13 34  1  0
 14 35  1  0
 14 36  1  0
 16 37  1  0
 17 38  1  0
 18 39  1  0
 19 40  1  0
 20 41  1  0
 21 42  1  0
M  END
>  <meeko>  (12) 
{"is_sidechain": [false], "free_energy": -7.694, "intermolecular_energy": -11.098, "internal_energy": -0.436}

$$$$
seed-5302
     RDKit          3D

 42 43  0  0  0  0  0  0  0  0999 V2000
  131.6730  128.6180  128.6630 C   0  0  0  0  0  0  0  0  0  0  0  0
  132.0640  128.1160  127.3850 O   0  0  0  0  0  0  0  0  0  0  0  0
  131.0300  127.6780  126.6250 C   0  0  0  0  0  0  0  0  0  0  0  0
  130.3450  128.3690  125.8880 O   0  0  0  0  0  0  0  0  0  0  0  0
  130.8290  126.2130  126.8020 C   0  0  0  0  0  0  0  0  0  0  0  0
  129.6590  125.6750  127.3520 C   0  0  0  0  0  0  0  0  0  0  0  0
  129.5220  124.2930  127.4920 C   0  0  0  0  0  0  0  0  0  0  0  0
  130.5480  123.4400  127.0820 C   0  0  0  0  0  0  0  0  0  0  0  0
  131.7220  123.9600  126.5250 C   0  0  0  0  0  0  0  0  0  0  0  0
  132.8460  123.0440  126.0960 C   0  0  0  0  0  0  0  0  0  0  0  0
  134.2100  123.7550  126.1590 C   0  0  0  0  0  0  0  0  0  0  0  0
  135.2610  123.2700  125.2440 N   0  0  0  0  0  0  0  0  0  0  0  0
  136.0880  122.2350  125.8590 C   0  0  0  0  0  0  0  0  0  0  0  0
  134.7570  122.8190  123.9360 C   0  0  0  0  0  0  0  0  0  0  0  0
  134.6140  123.9310  122.9190 C   0  0  0  0  0  0  0  0  0  0  0  0
  133.3470  124.4390  122.5960 C   0  0  0  0  0  0  0  0  0  0  0  0
  133.2100  125.4570  121.6510 C   0  0  0  0  0  0  0  0  0  0  0  0
  134.3380  125.9770  121.0190 C   0  0  0  0  0  0  0  0  0  0  0  0
  135.6030  125.4820  121.3320 C   0  0  0  0  0  0  0  0  0  0  0  0
  135.7420  124.4670  122.2790 C   0  0  0  0  0  0  0  0  0  0  0  0
  131.8570  125.3510  126.3940 C   0  0  0  0  0  0  0  0  0  0  0  0
  132.1431  128.0145  129.4535 H   0  0  0  0  0  0  0  0  0  0  0  0
  131.9959  129.6650  128.7601 H   0  0  0  0  0  0  0  0  0  0  0  0
  130.5788  128.5613  128.7601 H   0  0  0  0  0  0  0  0  0  0  0  0
  128.8464  126.3427  127.6743 H   0  0  0  0  0  0  0  0  0  0  0  0
  128.6023  123.8746  127.9269 H   0  0  0  0  0  0  0  0  0  0  0  0
  130.4331  122.3521  127.1974 H   0  0  0  0  0  0  0  0  0  0  0  0
  132.8680  122.1692  126.7625 H   0  0  0  0  0  0  0  0  0  0  0  0
  132.6639  122.7393  125.0548 H   0  0  0  0  0  0  0  0  0  0  0  0
  134.0404  124.8186  125.9356 H   0  0  0  0  0  0  0  0  0  0  0  0
  134.5933  123.5488  127.1692 H   0  0  0  0  0  0  0  0  0  0  0  0
  136.0230  122.3163  126.9541 H   0  0  0  0  0  0  0  0  0  0  0  0
  135.7302  121.2439  125.5431 H   0  0  0  0  0  0  0  0  0  0  0  0
  137.1336  122.3653  125.5431 H   0  0  0  0  0  0  0  0  0  0  0  0
  135.4556  122.0700  123.5348 H   0  0  0  0  0  0  0  0  0  0  0  0
  133.7505  122.4086  124.1051 H   0  0  0  0  0  0  0  0  0  0  0  0
  132.4536  124.0315  123.0918 H   0  0  0  0  0  0  0  0  0  0  0  0
  132.2120  125.8488  121.4051 H   0  0  0  0  0  0  0  0  0  0  0  0
  134.2301  126.7782  120.2730 H   0  0  0  0  0  0  0  0  0  0  0  0
  136.4927  125.8922  120.8317 H   0  0  0  0  0  0  0  0  0  0  0  0
  136.7432  124.0840  122.5258 H   0  0  0  0  0  0  0  0  0  0  0  0
  132.7799  125.7697  125.9663 H   0  0  0  0  0  0  0  0  0  0  0  0
  1  2  1  0
  2  3  1  0
  3  4  2  0
  3  5  1  0
  5  6  1  0
  6  7  2  0
  7  8  1  0
  8  9  2  0
  9 10  1  0
 10 11  1  0
 11 12  1  0
 12 13  1  0
 12 14  1  0
 14 15  1  0
 15 16  2  0
 16 17  1  0
 17 18  2  0
 18 19  1  0
 19 20  2  0
  9 21  1  0
 21  5  2  0
 20 15  1  0
  1 22  1  0
  1 23  1  0
  1 24  1  0
  6 25  1  0
  7 26  1  0
  8 27  1  0
 10 28  1  0
 10 29  1  0
 11 30  1  0
 11 31  1  0
 13 32  1  0
 13 33  1  0
 13 34  1  0
 14 35  1  0
 14 36  1  0
 16 37  1  0
 17 38  1  0
 18 39  1  0
 19 40  1  0
 20 41  1  0
 21 42  1  0
M  END
>  <meeko>  (13) 
{"is_sidechain": [false], "free_energy": -7.636, "intermolecular_energy": -10.496, "internal_energy": -0.956}

$$$$
seed-5302
     RDKit          3D

 42 43  0  0  0  0  0  0  0  0999 V2000
  132.7130  123.9820  116.5900 C   0  0  0  0  0  0  0  0  0  0  0  0
  133.9080  124.5930  117.0740 O   0  0  0  0  0  0  0  0  0  0  0  0
  134.8200  123.7130  117.5560 C   0  0  0  0  0  0  0  0  0  0  0  0
  135.4680  122.9210  116.8900 O   0  0  0  0  0  0  0  0  0  0  0  0
  134.9400  123.8370  119.0360 C   0  0  0  0  0  0  0  0  0  0  0  0
  135.7640  122.9970  119.7970 C   0  0  0  0  0  0  0  0  0  0  0  0
  135.8410  123.1600  121.1810 C   0  0  0  0  0  0  0  0  0  0  0  0
  135.1030  124.1610  121.8130 C   0  0  0  0  0  0  0  0  0  0  0  0
  134.2790  125.0130  121.0670 C   0  0  0  0  0  0  0  0  0  0  0  0
  133.4610  126.0870  121.7470 C   0  0  0  0  0  0  0  0  0  0  0  0
  132.3920  125.4820  122.6750 C   0  0  0  0  0  0  0  0  0  0  0  0
  132.2640  126.0700  124.0220 N   0  0  0  0  0  0  0  0  0  0  0  0
  130.8740  126.3750  124.3570 C   0  0  0  0  0  0  0  0  0  0  0  0
  132.8880  125.2700  125.0900 C   0  0  0  0  0  0  0  0  0  0  0  0
  134.4010  125.3070  125.0750 C   0  0  0  0  0  0  0  0  0  0  0  0
  135.1420  124.1520  125.3710 C   0  0  0  0  0  0  0  0  0  0  0  0
  136.5370  124.1850  125.3690 C   0  0  0  0  0  0  0  0  0  0  0  0
  137.2060  125.3710  125.0720 C   0  0  0  0  0  0  0  0  0  0  0  0
  136.4820  126.5240  124.7760 C   0  0  0  0  0  0  0  0  0  0  0  0
  135.0880  126.4930  124.7730 C   0  0  0  0  0  0  0  0  0  0  0  0
  134.1990  124.8400  119.6770 C   0  0  0  0  0  0  0  0  0  0  0  0
  132.0926  123.6648  117.4412 H   0  0  0  0  0  0  0  0  0  0  0  0
  132.1536  124.7047  115.9778 H   0  0  0  0  0  0  0  0  0  0  0  0
  132.9714  123.1054  115.9778 H   0  0  0  0  0  0  0  0  0  0  0  0
  136.3507  122.2084  119.3031 H   0  0  0  0  0  0  0  0  0  0  0  0
  136.4861  122.4966  121.7757 H   0  0  0  0  0  0  0  0  0  0  0  0
  135.1687  124.2819  122.9044 H   0  0  0  0  0  0  0  0  0  0  0  0
  134.1319  126.7236  122.3425 H   0  0  0  0  0  0  0  0  0  0  0  0
  132.9499  126.6743  120.9699 H   0  0  0  0  0  0  0  0  0  0  0  0
  131.4188  125.5873  122.1731 H   0  0  0  0  0  0  0  0  0  0  0  0
  132.7159  124.4447  122.8457 H   0  0  0  0  0  0  0  0  0  0  0  0
  130.7575  126.4006  125.4505 H   0  0  0  0  0  0  0  0  0  0  0  0
  130.6018  127.3542  123.9363 H   0  0  0  0  0  0  0  0  0  0  0  0
  130.2168  125.5997  123.9363 H   0  0  0  0  0  0  0  0  0  0  0  0
  132.5411  125.6555  126.0601 H   0  0  0  0  0  0  0  0  0  0  0  0
  132.5910  124.2242  124.9226 H   0  0  0  0  0  0  0  0  0  0  0  0
  134.6188  123.2135  125.6064 H   0  0  0  0  0  0  0  0  0  0  0  0
  137.1089  123.2746  125.6019 H   0  0  0  0  0  0  0  0  0  0  0  0
  138.3057  125.3968  125.0713 H   0  0  0  0  0  0  0  0  0  0  0  0
  137.0109  127.4602  124.5443 H   0  0  0  0  0  0  0  0  0  0  0  0
  134.5223  127.4051  124.5321 H   0  0  0  0  0  0  0  0  0  0  0  0
  133.5478  125.4985  119.0835 H   0  0  0  0  0  0  0  0  0  0  0  0
  1  2  1  0
  2  3  1  0
  3  4  2  0
  3  5  1  0
  5  6  1  0
  6  7  2  0
  7  8  1  0
  8  9  2  0
  9 10  1  0
 10 11  1  0
 11 12  1  0
 12 13  1  0
 12 14  1  0
 14 15  1  0
 15 16  2  0
 16 17  1  0
 17 18  2  0
 18 19  1  0
 19 20  2  0
  9 21  1  0
 21  5  2  0
 20 15  1  0
  1 22  1  0
  1 23  1  0
  1 24  1  0
  6 25  1  0
  7 26  1  0
  8 27  1  0
 10 28  1  0
 10 29  1  0
 11 30  1  0
 11 31  1  0
 13 32  1  0
 13 33  1  0
 13 34  1  0
 14 35  1  0
 14 36  1  0
 16 37  1  0
 17 38  1  0
 18 39  1  0
 19 40  1  0
 20 41  1  0
 21 42  1  0
M  END
>  <meeko>  (14) 
{"is_sidechain": [false], "free_energy": -7.609, "intermolecular_energy": -10.308, "internal_energy": -1.105}

$$$$
seed-5302
     RDKit          3D

 42 43  0  0  0  0  0  0  0  0999 V2000
  130.9420  126.5580  124.4270 C   0  0  0  0  0  0  0  0  0  0  0  0
  131.8090  126.3620  125.5440 O   0  0  0  0  0  0  0  0  0  0  0  0
  131.3700  125.4270  126.4240 C   0  0  0  0  0  0  0  0  0  0  0  0
  130.4290  125.5570  127.1910 O   0  0  0  0  0  0  0  0  0  0  0  0
  132.1960  124.1910  126.3350 C   0  0  0  0  0  0  0  0  0  0  0  0
  131.6510  122.9100  126.4820 C   0  0  0  0  0  0  0  0  0  0  0  0
  132.4710  121.7840  126.3850 C   0  0  0  0  0  0  0  0  0  0  0  0
  133.8370  121.9290  126.1380 C   0  0  0  0  0  0  0  0  0  0  0  0
  134.3970  123.2030  125.9820 C   0  0  0  0  0  0  0  0  0  0  0  0
  135.8790  123.3690  125.7330 C   0  0  0  0  0  0  0  0  0  0  0  0
  136.1510  124.2110  124.4730 C   0  0  0  0  0  0  0  0  0  0  0  0
  136.3480  125.6600  124.6650 N   0  0  0  0  0  0  0  0  0  0  0  0
  137.4700  125.9480  125.5560 C   0  0  0  0  0  0  0  0  0  0  0  0
  136.4760  126.4200  123.4110 C   0  0  0  0  0  0  0  0  0  0  0  0
  135.5440  125.9520  122.3140 C   0  0  0  0  0  0  0  0  0  0  0  0
  134.1540  126.0570  122.4710 C   0  0  0  0  0  0  0  0  0  0  0  0
  133.2910  125.6150  121.4660 C   0  0  0  0  0  0  0  0  0  0  0  0
  133.8090  125.0640  120.2950 C   0  0  0  0  0  0  0  0  0  0  0  0
  135.1880  124.9550  120.1270 C   0  0  0  0  0  0  0  0  0  0  0  0
  136.0520  125.3990  121.1280 C   0  0  0  0  0  0  0  0  0  0  0  0
  133.5700  124.3310  126.0880 C   0  0  0  0  0  0  0  0  0  0  0  0
  129.9278  126.7873  124.7859 H   0  0  0  0  0  0  0  0  0  0  0  0
  131.3131  127.3949  123.8172 H   0  0  0  0  0  0  0  0  0  0  0  0
  130.9170  125.6428  123.8172 H   0  0  0  0  0  0  0  0  0  0  0  0
  130.5746  122.7902  126.6743 H   0  0  0  0  0  0  0  0  0  0  0  0
  132.0390  120.7794  126.5036 H   0  0  0  0  0  0  0  0  0  0  0  0
  134.4773  121.0375  126.0655 H   0  0  0  0  0  0  0  0  0  0  0  0
  136.3331  123.8688  126.6013 H   0  0  0  0  0  0  0  0  0  0  0  0
  136.3163  122.3712  125.5811 H   0  0  0  0  0  0  0  0  0  0  0  0
  137.0596  123.8128  123.9977 H   0  0  0  0  0  0  0  0  0  0  0  0
  135.2356  124.1250  123.8691 H   0  0  0  0  0  0  0  0  0  0  0  0
  137.1391  125.8631  126.6016 H   0  0  0  0  0  0  0  0  0  0  0  0
  138.2810  125.2289  125.3685 H   0  0  0  0  0  0  0  0  0  0  0  0
  137.8344  126.9688  125.3685 H   0  0  0  0  0  0  0  0  0  0  0  0
  136.2587  127.4773  123.6228 H   0  0  0  0  0  0  0  0  0  0  0  0
  137.5023  126.2653  123.0465 H   0  0  0  0  0  0  0  0  0  0  0  0
  133.7404  126.4910  123.3933 H   0  0  0  0  0  0  0  0  0  0  0  0
  132.2024  125.7016  121.5984 H   0  0  0  0  0  0  0  0  0  0  0  0
  133.1292  124.7153  119.5036 H   0  0  0  0  0  0  0  0  0  0  0  0
  135.5959  124.5181  119.2035 H   0  0  0  0  0  0  0  0  0  0  0  0
  137.1397  125.3152  120.9869 H   0  0  0  0  0  0  0  0  0  0  0  0
  134.0033  125.3359  125.9763 H   0  0  0  0  0  0  0  0  0  0  0  0
  1  2  1  0
  2  3  1  0
  3  4  2  0
  3  5  1  0
  5  6  1  0
  6  7  2  0
  7  8  1  0
  8  9  2  0
  9 10  1  0
 10 11  1  0
 11 12  1  0
 12 13  1  0
 12 14  1  0
 14 15  1  0
 15 16  2  0
 16 17  1  0
 17 18  2  0
 18 19  1  0
 19 20  2  0
  9 21  1  0
 21  5  2  0
 20 15  1  0
  1 22  1  0
  1 23  1  0
  1 24  1  0
  6 25  1  0
  7 26  1  0
  8 27  1  0
 10 28  1  0
 10 29  1  0
 11 30  1  0
 11 31  1  0
 13 32  1  0
 13 33  1  0
 13 34  1  0
 14 35  1  0
 14 36  1  0
 16 37  1  0
 17 38  1  0
 18 39  1  0
 19 40  1  0
 20 41  1  0
 21 42  1  0
M  END
>  <meeko>  (15) 
{"is_sidechain": [false], "free_energy": -7.566, "intermolecular_energy": -10.619, "internal_energy": -0.735}

$$$$
seed-5302
     RDKit          3D

 42 43  0  0  0  0  0  0  0  0999 V2000
  134.9270  122.3810  116.4970 C   0  0  0  0  0  0  0  0  0  0  0  0
  135.5100  123.4150  117.2900 O   0  0  0  0  0  0  0  0  0  0  0  0
  134.6030  124.2030  117.9200 C   0  0  0  0  0  0  0  0  0  0  0  0
  133.7200  124.8470  117.3770 O   0  0  0  0  0  0  0  0  0  0  0  0
  134.8210  124.1810  119.3930 C   0  0  0  0  0  0  0  0  0  0  0  0
  135.8990  123.5110  119.9850 C   0  0  0  0  0  0  0  0  0  0  0  0
  136.0570  123.5260  121.3710 C   0  0  0  0  0  0  0  0  0  0  0  0
  135.1460  124.2110  122.1750 C   0  0  0  0  0  0  0  0  0  0  0  0
  134.0660  124.8920  121.6000 C   0  0  0  0  0  0  0  0  0  0  0  0
  133.0630  125.6210  122.4660 C   0  0  0  0  0  0  0  0  0  0  0  0
  132.2640  124.6450  123.3500 C   0  0  0  0  0  0  0  0  0  0  0  0
  132.4680  124.7420  124.8070 N   0  0  0  0  0  0  0  0  0  0  0  0
  133.5860  123.9160  125.2610 C   0  0  0  0  0  0  0  0  0  0  0  0
  132.6100  126.1210  125.3040 C   0  0  0  0  0  0  0  0  0  0  0  0
  131.6020  126.4920  126.3710 C   0  0  0  0  0  0  0  0  0  0  0  0
  131.6090  127.7760  126.9360 C   0  0  0  0  0  0  0  0  0  0  0  0
  130.6880  128.1190  127.9280 C   0  0  0  0  0  0  0  0  0  0  0  0
  129.7530  127.1830  128.3650 C   0  0  0  0  0  0  0  0  0  0  0  0
  129.7360  125.9040  127.8110 C   0  0  0  0  0  0  0  0  0  0  0  0
  130.6520  125.5610  126.8170 C   0  0  0  0  0  0  0  0  0  0  0  0
  133.9070  124.8670  120.2060 C   0  0  0  0  0  0  0  0  0  0  0  0
  134.4943  121.6136  117.1557 H   0  0  0  0  0  0  0  0  0  0  0  0
  134.1364  122.8074  115.8621 H   0  0  0  0  0  0  0  0  0  0  0  0
  135.7011  121.9252  115.8621 H   0  0  0  0  0  0  0  0  0  0  0  0
  136.6225  122.9719  119.3559 H   0  0  0  0  0  0  0  0  0  0  0  0
  136.9034  122.9955  121.8316 H   0  0  0  0  0  0  0  0  0  0  0  0
  135.2767  124.2163  123.2672 H   0  0  0  0  0  0  0  0  0  0  0  0
  133.5989  126.3315  123.1125 H   0  0  0  0  0  0  0  0  0  0  0  0
  132.3563  126.1466  121.8070 H   0  0  0  0  0  0  0  0  0  0  0  0
  131.1956  124.8167  123.1523 H   0  0  0  0  0  0  0  0  0  0  0  0
  132.6312  123.6450  123.0759 H   0  0  0  0  0  0  0  0  0  0  0  0
  133.6074  123.9002  126.3607 H   0  0  0  0  0  0  0  0  0  0  0  0
  133.4621  122.8908  124.8819 H   0  0  0  0  0  0  0  0  0  0  0  0
  134.5295  124.3356  124.8819 H   0  0  0  0  0  0  0  0  0  0  0  0
  133.6195  126.2356  125.7255 H   0  0  0  0  0  0  0  0  0  0  0  0
  132.4328  126.7899  124.4489 H   0  0  0  0  0  0  0  0  0  0  0  0
  132.3456  128.5183  126.5950 H   0  0  0  0  0  0  0  0  0  0  0  0
  130.7007  129.1286  128.3646 H   0  0  0  0  0  0  0  0  0  0  0  0
  129.0283  127.4533  129.1471 H   0  0  0  0  0  0  0  0  0  0  0  0
  128.9993  125.1646  128.1582 H   0  0  0  0  0  0  0  0  0  0  0  0
  130.6295  124.5522  126.3791 H   0  0  0  0  0  0  0  0  0  0  0  0
  133.0563  125.3911  119.7460 H   0  0  0  0  0  0  0  0  0  0  0  0
  1  2  1  0
  2  3  1  0
  3  4  2  0
  3  5  1  0
  5  6  1  0
  6  7  2  0
  7  8  1  0
  8  9  2  0
  9 10  1  0
 10 11  1  0
 11 12  1  0
 12 13  1  0
 12 14  1  0
 14 15  1  0
 15 16  2  0
 16 17  1  0
 17 18  2  0
 18 19  1  0
 19 20  2  0
  9 21  1  0
 21  5  2  0
 20 15  1  0
  1 22  1  0
  1 23  1  0
  1 24  1  0
  6 25  1  0
  7 26  1  0
  8 27  1  0
 10 28  1  0
 10 29  1  0
 11 30  1  0
 11 31  1  0
 13 32  1  0
 13 33  1  0
 13 34  1  0
 14 35  1  0
 14 36  1  0
 16 37  1  0
 17 38  1  0
 18 39  1  0
 19 40  1  0
 20 41  1  0
 21 42  1  0
M  END
>  <meeko>  (16) 
{"is_sidechain": [false], "free_energy": -7.547, "intermolecular_energy": -10.84, "internal_energy": -0.487}

$$$$
seed-5302
     RDKit          3D

 42 43  0  0  0  0  0  0  0  0999 V2000
  134.3880  124.9630  118.6310 C   0  0  0  0  0  0  0  0  0  0  0  0
  134.0030  124.9990  120.0050 O   0  0  0  0  0  0  0  0  0  0  0  0
  134.8090  124.2750  120.8210 C   0  0  0  0  0  0  0  0  0  0  0  0
  135.2900  123.1830  120.5620 O   0  0  0  0  0  0  0  0  0  0  0  0
  135.0420  124.9940  122.1040 C   0  0  0  0  0  0  0  0  0  0  0  0
  136.2680  125.5940  122.4190 C   0  0  0  0  0  0  0  0  0  0  0  0
  136.4310  126.2590  123.6350 C   0  0  0  0  0  0  0  0  0  0  0  0
  135.3730  126.3330  124.5420 C   0  0  0  0  0  0  0  0  0  0  0  0
  134.1390  125.7450  124.2420 C   0  0  0  0  0  0  0  0  0  0  0  0
  132.9940  125.8040  125.2280 C   0  0  0  0  0  0  0  0  0  0  0  0
  133.1090  124.7010  126.2960 C   0  0  0  0  0  0  0  0  0  0  0  0
  132.0820  123.6430  126.2800 N   0  0  0  0  0  0  0  0  0  0  0  0
  130.8130  124.1190  125.7330 C   0  0  0  0  0  0  0  0  0  0  0  0
  132.5040  122.4060  125.6020 C   0  0  0  0  0  0  0  0  0  0  0  0
  133.9860  122.1210  125.7160 C   0  0  0  0  0  0  0  0  0  0  0  0
  134.5540  121.8050  126.9590 C   0  0  0  0  0  0  0  0  0  0  0  0
  135.9230  121.5540  127.0700 C   0  0  0  0  0  0  0  0  0  0  0  0
  136.7370  121.6160  125.9410 C   0  0  0  0  0  0  0  0  0  0  0  0
  136.1840  121.9270  124.7000 C   0  0  0  0  0  0  0  0  0  0  0  0
  134.8160  122.1760  124.5860 C   0  0  0  0  0  0  0  0  0  0  0  0
  133.9830  125.0700  123.0210 C   0  0  0  0  0  0  0  0  0  0  0  0
  135.4809  124.8608  118.5590 H   0  0  0  0  0  0  0  0  0  0  0  0
  133.9063  124.1060  118.1376 H   0  0  0  0  0  0  0  0  0  0  0  0
  134.0735  125.8945  118.1376 H   0  0  0  0  0  0  0  0  0  0  0  0
  137.1041  125.5409  121.7062 H   0  0  0  0  0  0  0  0  0  0  0  0
  137.3964  126.7263  123.8793 H   0  0  0  0  0  0  0  0  0  0  0  0
  135.5099  126.8571  125.4994 H   0  0  0  0  0  0  0  0  0  0  0  0
  133.0015  126.7850  125.7256 H   0  0  0  0  0  0  0  0  0  0  0  0
  132.0554  125.6514  124.6751 H   0  0  0  0  0  0  0  0  0  0  0  0
  134.0875  124.2153  126.1672 H   0  0  0  0  0  0  0  0  0  0  0  0
  132.9705  125.2185  127.2567 H   0  0  0  0  0  0  0  0  0  0  0  0
  130.1312  124.3747  126.5575 H   0  0  0  0  0  0  0  0  0  0  0  0
  130.9918  125.0112  125.1149 H   0  0  0  0  0  0  0  0  0  0  0  0
  130.3609  123.3293  125.1149 H   0  0  0  0  0  0  0  0  0  0  0  0
  131.9538  121.5628  126.0451 H   0  0  0  0  0  0  0  0  0  0  0  0
  132.2847  122.5367  124.5320 H   0  0  0  0  0  0  0  0  0  0  0  0
  133.9158  121.7545  127.8535 H   0  0  0  0  0  0  0  0  0  0  0  0
  136.3591  121.3072  128.0493 H   0  0  0  0  0  0  0  0  0  0  0  0
  137.8157  121.4196  126.0290 H   0  0  0  0  0  0  0  0  0  0  0  0
  136.8272  121.9762  123.8090 H   0  0  0  0  0  0  0  0  0  0  0  0
  134.3849  122.4172  123.6031 H   0  0  0  0  0  0  0  0  0  0  0  0
  133.0201  124.5956  122.7807 H   0  0  0  0  0  0  0  0  0  0  0  0
  1  2  1  0
  2  3  1  0
  3  4  2  0
  3  5  1  0
  5  6  1  0
  6  7  2  0
  7  8  1  0
  8  9  2  0
  9 10  1  0
 10 11  1  0
 11 12  1  0
 12 13  1  0
 12 14  1  0
 14 15  1  0
 15 16  2  0
 16 17  1  0
 17 18  2  0
 18 19  1  0
 19 20  2  0
  9 21  1  0
 21  5  2  0
 20 15  1  0
  1 22  1  0
  1 23  1  0
  1 24  1  0
  6 25  1  0
  7 26  1  0
  8 27  1  0
 10 28  1  0
 10 29  1  0
 11 30  1  0
 11 31  1  0
 13 32  1  0
 13 33  1  0
 13 34  1  0
 14 35  1  0
 14 36  1  0
 16 37  1  0
 17 38  1  0
 18 39  1  0
 19 40  1  0
 20 41  1  0
 21 42  1  0
M  END
>  <meeko>  (17) 
{"is_sidechain": [false], "free_energy": -7.54, "intermolecular_energy": -10.146, "internal_energy": -1.171}

$$$$
seed-5302
     RDKit          3D

 42 43  0  0  0  0  0  0  0  0999 V2000
  131.9350  128.9130  128.9370 C   0  0  0  0  0  0  0  0  0  0  0  0
  130.7880  128.0840  129.1290 O   0  0  0  0  0  0  0  0  0  0  0  0
  130.0900  127.8390  127.9930 C   0  0  0  0  0  0  0  0  0  0  0  0
  129.7490  128.6760  127.1720 O   0  0  0  0  0  0  0  0  0  0  0  0
  129.7850  126.3870  127.8650 C   0  0  0  0  0  0  0  0  0  0  0  0
  128.6130  125.8160  128.3760 C   0  0  0  0  0  0  0  0  0  0  0  0
  128.3760  124.4490  128.2250 C   0  0  0  0  0  0  0  0  0  0  0  0
  129.3030  123.6450  127.5610 C   0  0  0  0  0  0  0  0  0  0  0  0
  130.4770  124.1990  127.0390 C   0  0  0  0  0  0  0  0  0  0  0  0
  131.4960  123.3310  126.3350 C   0  0  0  0  0  0  0  0  0  0  0  0
  132.8080  124.0940  126.0770 C   0  0  0  0  0  0  0  0  0  0  0  0
  133.2370  124.2320  124.6720 N   0  0  0  0  0  0  0  0  0  0  0  0
  132.3520  125.1110  123.9120 C   0  0  0  0  0  0  0  0  0  0  0  0
  134.6410  124.6480  124.5110 C   0  0  0  0  0  0  0  0  0  0  0  0
  135.1820  124.4420  123.1130 C   0  0  0  0  0  0  0  0  0  0  0  0
  135.1400  123.1740  122.5150 C   0  0  0  0  0  0  0  0  0  0  0  0
  135.6480  122.9780  121.2300 C   0  0  0  0  0  0  0  0  0  0  0  0
  136.2050  124.0480  120.5300 C   0  0  0  0  0  0  0  0  0  0  0  0
  136.2520  125.3130  121.1130 C   0  0  0  0  0  0  0  0  0  0  0  0
  135.7410  125.5110  122.3960 C   0  0  0  0  0  0  0  0  0  0  0  0
  130.7140  125.5730  127.2000 C   0  0  0  0  0  0  0  0  0  0  0  0
  132.3425  129.2075  129.9154 H   0  0  0  0  0  0  0  0  0  0  0  0
  132.6991  128.3571  128.3739 H   0  0  0  0  0  0  0  0  0  0  0  0
  131.6469  129.8129  128.3739 H   0  0  0  0  0  0  0  0  0  0  0  0
  127.8776  126.4462  128.8975 H   0  0  0  0  0  0  0  0  0  0  0  0
  127.4555  124.0040  128.6308 H   0  0  0  0  0  0  0  0  0  0  0  0
  129.1095  122.5682  127.4471 H   0  0  0  0  0  0  0  0  0  0  0  0
  131.7109  122.4529  126.9617 H   0  0  0  0  0  0  0  0  0  0  0  0
  131.0776  123.0274  125.3640 H   0  0  0  0  0  0  0  0  0  0  0  0
  132.6893  125.1071  126.4888 H   0  0  0  0  0  0  0  0  0  0  0  0
  133.5904  123.4875  126.5565 H   0  0  0  0  0  0  0  0  0  0  0  0
  131.7470  125.7119  124.6069 H   0  0  0  0  0  0  0  0  0  0  0  0
  132.9542  125.7788  123.2784 H   0  0  0  0  0  0  0  0  0  0  0  0
  131.6884  124.5043  123.2784 H   0  0  0  0  0  0  0  0  0  0  0  0
  134.7165  125.7172  124.7581 H   0  0  0  0  0  0  0  0  0  0  0  0
  135.2413  124.0173  125.1832 H   0  0  0  0  0  0  0  0  0  0  0  0
  134.7029  122.3267  123.0636 H   0  0  0  0  0  0  0  0  0  0  0  0
  135.6091  121.9798  120.7694 H   0  0  0  0  0  0  0  0  0  0  0  0
  136.6072  123.8935  119.5179 H   0  0  0  0  0  0  0  0  0  0  0  0
  136.6925  126.1563  120.5609 H   0  0  0  0  0  0  0  0  0  0  0  0
  135.7765  126.5127  122.8490 H   0  0  0  0  0  0  0  0  0  0  0  0
  131.6381  126.0163  126.8005 H   0  0  0  0  0  0  0  0  0  0  0  0
  1  2  1  0
  2  3  1  0
  3  4  2  0
  3  5  1  0
  5  6  1  0
  6  7  2  0
  7  8  1  0
  8  9  2  0
  9 10  1  0
 10 11  1  0
 11 12  1  0
 12 13  1  0
 12 14  1  0
 14 15  1  0
 15 16  2  0
 16 17  1  0
 17 18  2  0
 18 19  1  0
 19 20  2  0
  9 21  1  0
 21  5  2  0
 20 15  1  0
  1 22  1  0
  1 23  1  0
  1 24  1  0
  6 25  1  0
  7 26  1  0
  8 27  1  0
 10 28  1  0
 10 29  1  0
 11 30  1  0
 11 31  1  0
 13 32  1  0
 13 33  1  0
 13 34  1  0
 14 35  1  0
 14 36  1  0
 16 37  1  0
 17 38  1  0
 18 39  1  0
 19 40  1  0
 20 41  1  0
 21 42  1  0
M  END
>  <meeko>  (18) 
{"is_sidechain": [false], "free_energy": -7.496, "intermolecular_energy": -10.744, "internal_energy": -0.511}

$$$$
seed-5302
     RDKit          3D

 42 43  0  0  0  0  0  0  0  0999 V2000
  130.6670  124.3730  126.4700 C   0  0  0  0  0  0  0  0  0  0  0  0
  131.8460  124.0110  125.7510 O   0  0  0  0  0  0  0  0  0  0  0  0
  132.3390  122.7910  126.0800 C   0  0  0  0  0  0  0  0  0  0  0  0
  131.7930  121.9740  126.8040 O   0  0  0  0  0  0  0  0  0  0  0  0
  133.6600  122.5650  125.4310 C   0  0  0  0  0  0  0  0  0  0  0  0
  134.7950  122.1690  126.1520 C   0  0  0  0  0  0  0  0  0  0  0  0
  136.0080  121.9670  125.4920 C   0  0  0  0  0  0  0  0  0  0  0  0
  136.0970  122.1540  124.1120 C   0  0  0  0  0  0  0  0  0  0  0  0
  134.9720  122.5440  123.3750 C   0  0  0  0  0  0  0  0  0  0  0  0
  135.0660  122.7670  121.8830 C   0  0  0  0  0  0  0  0  0  0  0  0
  136.3930  123.4420  121.4940 C   0  0  0  0  0  0  0  0  0  0  0  0
  136.3140  124.6040  120.5880 N   0  0  0  0  0  0  0  0  0  0  0  0
  135.0740  124.6140  119.8160 C   0  0  0  0  0  0  0  0  0  0  0  0
  136.5170  125.9010  121.2550 C   0  0  0  0  0  0  0  0  0  0  0  0
  136.0040  125.9440  122.6780 C   0  0  0  0  0  0  0  0  0  0  0  0
  136.8790  125.7370  123.7550 C   0  0  0  0  0  0  0  0  0  0  0  0
  136.4080  125.7650  125.0680 C   0  0  0  0  0  0  0  0  0  0  0  0
  135.0570  125.9980  125.3190 C   0  0  0  0  0  0  0  0  0  0  0  0
  134.1770  126.2060  124.2580 C   0  0  0  0  0  0  0  0  0  0  0  0
  134.6470  126.1830  122.9450 C   0  0  0  0  0  0  0  0  0  0  0  0
  133.7570  122.7530  124.0450 C   0  0  0  0  0  0  0  0  0  0  0  0
  130.8635  124.3127  127.5506 H   0  0  0  0  0  0  0  0  0  0  0  0
  130.3782  125.4012  126.2067 H   0  0  0  0  0  0  0  0  0  0  0  0
  129.8509  123.6841  126.2067 H   0  0  0  0  0  0  0  0  0  0  0  0
  134.7295  122.0172  127.2395 H   0  0  0  0  0  0  0  0  0  0  0  0
  136.8972  121.6592  126.0617 H   0  0  0  0  0  0  0  0  0  0  0  0
  137.0572  121.9940  123.5997 H   0  0  0  0  0  0  0  0  0  0  0  0
  134.9962  121.7956  121.3717 H   0  0  0  0  0  0  0  0  0  0  0  0
  134.2414  123.4296  121.5814 H   0  0  0  0  0  0  0  0  0  0  0  0
  136.8790  123.7774  122.4220 H   0  0  0  0  0  0  0  0  0  0  0  0
  136.9473  122.6775  120.9298 H   0  0  0  0  0  0  0  0  0  0  0  0
  134.2147  124.6209  120.5026 H   0  0  0  0  0  0  0  0  0  0  0  0
  135.0440  125.5124  119.1820 H   0  0  0  0  0  0  0  0  0  0  0  0
  135.0295  123.7162  119.1820 H   0  0  0  0  0  0  0  0  0  0  0  0
  137.5951  126.1188  121.2685 H   0  0  0  0  0  0  0  0  0  0  0  0
  135.9433  126.6469  120.6854 H   0  0  0  0  0  0  0  0  0  0  0  0
  137.9459  125.5510  123.5625 H   0  0  0  0  0  0  0  0  0  0  0  0
  137.1030  125.6032  125.9051 H   0  0  0  0  0  0  0  0  0  0  0  0
  134.6852  126.0178  126.3541 H   0  0  0  0  0  0  0  0  0  0  0  0
  133.1106  126.3885  124.4566 H   0  0  0  0  0  0  0  0  0  0  0  0
  133.9487  126.3535  122.1123 H   0  0  0  0  0  0  0  0  0  0  0  0
  132.8699  123.0681  123.4760 H   0  0  0  0  0  0  0  0  0  0  0  0
  1  2  1  0
  2  3  1  0
  3  4  2  0
  3  5  1  0
  5  6  1  0
  6  7  2  0
  7  8  1  0
  8  9  2  0
  9 10  1  0
 10 11  1  0
 11 12  1  0
 12 13  1  0
 12 14  1  0
 14 15  1  0
 15 16  2  0
 16 17  1  0
 17 18  2  0
 18 19  1  0
 19 20  2  0
  9 21  1  0
 21  5  2  0
 20 15  1  0
  1 22  1  0
  1 23  1  0
  1 24  1  0
  6 25  1  0
  7 26  1  0
  8 27  1  0
 10 28  1  0
 10 29  1  0
 11 30  1  0
 11 31  1  0
 13 32  1  0
 13 33  1  0
 13 34  1  0
 14 35  1  0
 14 36  1  0
 16 37  1  0
 17 38  1  0
 18 39  1  0
 19 40  1  0
 20 41  1  0
 21 42  1  0
M  END
>  <meeko>  (19) 
{"is_sidechain": [false], "free_energy": -7.32, "intermolecular_energy": -9.05, "internal_energy": -1.956}

$$$$
seed-5302
     RDKit          3D

 42 43  0  0  0  0  0  0  0  0999 V2000
  130.0100  127.6340  127.4190 C   0  0  0  0  0  0  0  0  0  0  0  0
  130.2410  127.3140  126.0470 O   0  0  0  0  0  0  0  0  0  0  0  0
  129.6660  126.1520  125.6480 C   0  0  0  0  0  0  0  0  0  0  0  0
  128.5320  126.0300  125.2150 O   0  0  0  0  0  0  0  0  0  0  0  0
  130.6150  125.0150  125.8050 C   0  0  0  0  0  0  0  0  0  0  0  0
  130.4230  123.9990  126.7500 C   0  0  0  0  0  0  0  0  0  0  0  0
  131.3420  122.9540  126.8520 C   0  0  0  0  0  0  0  0  0  0  0  0
  132.4560  122.9140  126.0120 C   0  0  0  0  0  0  0  0  0  0  0  0
  132.6610  123.9170  125.0580 C   0  0  0  0  0  0  0  0  0  0  0  0
  133.8750  123.8910  124.1570 C   0  0  0  0  0  0  0  0  0  0  0  0
  133.7730  124.9450  123.0390 C   0  0  0  0  0  0  0  0  0  0  0  0
  134.8300  125.9730  122.9890 N   0  0  0  0  0  0  0  0  0  0  0  0
  135.3140  126.3270  124.3220 C   0  0  0  0  0  0  0  0  0  0  0  0
  135.9560  125.6340  122.1030 C   0  0  0  0  0  0  0  0  0  0  0  0
  135.5410  124.9380  120.8250 C   0  0  0  0  0  0  0  0  0  0  0  0
  135.9410  123.6170  120.5750 C   0  0  0  0  0  0  0  0  0  0  0  0
  135.5700  122.9750  119.3920 C   0  0  0  0  0  0  0  0  0  0  0  0
  134.7950  123.6480  118.4480 C   0  0  0  0  0  0  0  0  0  0  0  0
  134.3900  124.9600  118.6860 C   0  0  0  0  0  0  0  0  0  0  0  0
  134.7570  125.6010  119.8690 C   0  0  0  0  0  0  0  0  0  0  0  0
  131.7370  124.9700  124.9650 C   0  0  0  0  0  0  0  0  0  0  0  0
  130.5340  126.9081  128.0581 H   0  0  0  0  0  0  0  0  0  0  0  0
  130.3872  128.6459  127.6280 H   0  0  0  0  0  0  0  0  0  0  0  0
  128.9308  127.5946  127.6280 H   0  0  0  0  0  0  0  0  0  0  0  0
  129.5458  124.0250  127.4132 H   0  0  0  0  0  0  0  0  0  0  0  0
  131.1881  122.1592  127.5967 H   0  0  0  0  0  0  0  0  0  0  0  0
  133.1776  122.0885  126.1005 H   0  0  0  0  0  0  0  0  0  0  0  0
  134.7718  124.0958  124.7601 H   0  0  0  0  0  0  0  0  0  0  0  0
  133.9353  122.8973  123.6890 H   0  0  0  0  0  0  0  0  0  0  0  0
  133.7839  124.4109  122.0774 H   0  0  0  0  0  0  0  0  0  0  0  0
  132.8464  125.4983  123.2518 H   0  0  0  0  0  0  0  0  0  0  0  0
  134.6720  125.8574  125.0818 H   0  0  0  0  0  0  0  0  0  0  0  0
  136.3473  125.9701  124.4437 H   0  0  0  0  0  0  0  0  0  0  0  0
  135.2869  127.4199  124.4437 H   0  0  0  0  0  0  0  0  0  0  0  0
  136.4797  126.5640  121.8368 H   0  0  0  0  0  0  0  0  0  0  0  0
  136.5977  124.9320  122.6556 H   0  0  0  0  0  0  0  0  0  0  0  0
  136.5521  123.0824  121.3172 H   0  0  0  0  0  0  0  0  0  0  0  0
  135.8888  121.9390  119.2047 H   0  0  0  0  0  0  0  0  0  0  0  0
  134.5033  123.1431  117.5153 H   0  0  0  0  0  0  0  0  0  0  0  0
  133.7802  125.4906  117.9400 H   0  0  0  0  0  0  0  0  0  0  0  0
  134.4292  126.6346  120.0539 H   0  0  0  0  0  0  0  0  0  0  0  0
  131.8949  125.7685  124.2251 H   0  0  0  0  0  0  0  0  0  0  0  0
  1  2  1  0
  2  3  1  0
  3  4  2  0
  3  5  1  0
  5  6  1  0
  6  7  2  0
  7  8  1  0
  8  9  2  0
  9 10  1  0
 10 11  1  0
 11 12  1  0
 12 13  1  0
 12 14  1  0
 14 15  1  0
 15 16  2  0
 16 17  1  0
 17 18  2  0
 18 19  1  0
 19 20  2  0
  9 21  1  0
 21  5  2  0
 20 15  1  0
  1 22  1  0
  1 23  1  0
  1 24  1  0
  6 25  1  0
  7 26  1  0
  8 27  1  0
 10 28  1  0
 10 29  1  0
 11 30  1  0
 11 31  1  0
 13 32  1  0
 13 33  1  0
 13 34  1  0
 14 35  1  0
 14 36  1  0
 16 37  1  0
 17 38  1  0
 18 39  1  0
 19 40  1  0
 20 41  1  0
 21 42  1  0
M  END
>  <meeko>  (20) 
{"is_sidechain": [false], "free_energy": -7.135, "intermolecular_energy": -10.229, "internal_energy": -0.516}

$$$$
