seed-5301
     RDKit          3D

 42 43  0  0  0  0  0  0  0  0999 V2000
  130.2920  123.9680  126.9990 C   0  0  0  0  0  0  0  0  0  0  0  0
  131.4080  123.1000  126.7970 O   0  0  0  0  0  0  0  0  0  0  0  0
  131.7040  122.8800  125.4930 C   0  0  0  0  0  0  0  0  0  0  0  0
  130.9420  123.0370  124.5520 O   0  0  0  0  0  0  0  0  0  0  0  0
  133.1110  122.4140  125.3440 C   0  0  0  0  0  0  0  0  0  0  0  0
  133.6880  121.4770  126.2100 C   0  0  0  0  0  0  0  0  0  0  0  0
  135.0110  121.0720  126.0230 C   0  0  0  0  0  0  0  0  0  0  0  0
  135.7630  121.5950  124.9700 C   0  0  0  0  0  0  0  0  0  0  0  0
  135.2000  122.5270  124.0910 C   0  0  0  0  0  0  0  0  0  0  0  0
  136.0150  123.1130  122.9600 C   0  0  0  0  0  0  0  0  0  0  0  0
  135.4360  124.4580  122.4840 C   0  0  0  0  0  0  0  0  0  0  0  0
  134.6240  124.4390  121.2520 N   0  0  0  0  0  0  0  0  0  0  0  0
  133.5570  125.4370  121.2840 C   0  0  0  0  0  0  0  0  0  0  0  0
  135.4090  124.5620  120.0130 C   0  0  0  0  0  0  0  0  0  0  0  0
  135.1950  123.4240  119.0380 C   0  0  0  0  0  0  0  0  0  0  0  0
  135.3790  122.0950  119.4480 C   0  0  0  0  0  0  0  0  0  0  0  0
  135.1940  121.0430  118.5490 C   0  0  0  0  0  0  0  0  0  0  0  0
  134.8230  121.3090  117.2320 C   0  0  0  0  0  0  0  0  0  0  0  0
  134.6360  122.6250  116.8130 C   0  0  0  0  0  0  0  0  0  0  0  0
  134.8170  123.6770  117.7110 C   0  0  0  0  0  0  0  0  0  0  0  0
  133.8720  122.9370  124.2890 C   0  0  0  0  0  0  0  0  0  0  0  0
  130.1213  124.1008  128.0775 H   0  0  0  0  0  0  0  0  0  0  0  0
  130.4990  124.9448  126.5375 H   0  0  0  0  0  0  0  0  0  0  0  0
  129.3962  123.5269  126.5375 H   0  0  0  0  0  0  0  0  0  0  0  0
  133.0979  121.0593  127.0390 H   0  0  0  0  0  0  0  0  0  0  0  0
  135.4620  120.3386  126.7076 H   0  0  0  0  0  0  0  0  0  0  0  0
  136.8053  121.2724  124.8301 H   0  0  0  0  0  0  0  0  0  0  0  0
  137.0466  123.2711  123.3076 H   0  0  0  0  0  0  0  0  0  0  0  0
  135.9894  122.4085  122.1156 H   0  0  0  0  0  0  0  0  0  0  0  0
  134.8028  124.8516  123.2928 H   0  0  0  0  0  0  0  0  0  0  0  0
  136.3125  125.0758  122.2391 H   0  0  0  0  0  0  0  0  0  0  0  0
  133.3059  125.6719  122.3289 H   0  0  0  0  0  0  0  0  0  0  0  0
  133.8945  126.3511  120.7736 H   0  0  0  0  0  0  0  0  0  0  0  0
  132.6675  125.0392  120.7736 H   0  0  0  0  0  0  0  0  0  0  0  0
  135.1273  125.5020  119.5160 H   0  0  0  0  0  0  0  0  0  0  0  0
  136.4699  124.5401  120.3027 H   0  0  0  0  0  0  0  0  0  0  0  0
  135.6714  121.8801  120.4864 H   0  0  0  0  0  0  0  0  0  0  0  0
  135.3410  120.0043  118.8800 H   0  0  0  0  0  0  0  0  0  0  0  0
  134.6778  120.4803  116.5234 H   0  0  0  0  0  0  0  0  0  0  0  0
  134.3453  122.8344  115.7730 H   0  0  0  0  0  0  0  0  0  0  0  0
  134.6621  124.7132  117.3759 H   0  0  0  0  0  0  0  0  0  0  0  0
  133.4237  123.6765  123.6091 H   0  0  0  0  0  0  0  0  0  0  0  0
  1  2  1  0
  2  3  1  0
  3  4  2  0
  3  5  1  0
  5  6  1  0
  6  7  2  0
  7  8  1  0
  8  9  2  0
  9 10  1  0
 10 11  1  0
 11 12  1  0
 12 13  1  0
 12 14  1  0
 14 15  1  0
 15 16  2  0
 16 17  1  0
 17 18  2  0
 18 19  1  0
 19 20  2  0
  9 21  1  0
 21  5  2  0
 20 15  1  0
  1 22  1  0
  1 23  1  0
  1 24  1  0
  6 25  1  0
  7 26  1  0
  8 27  1  0
 10 28  1  0
 10 29  1  0
 11 30  1  0
 11 31  1  0
 13 32  1  0
 13 33  1  0
 13 34  1  0
 14 35  1  0
 14 36  1  0
 16 37  1  0
 17 38  1  0
 18 39  1  0
 19 40  1  0
 20 41  1  0
 21 42  1  0
M  END
>  <meeko>  (1) 
{"is_sidechain": [false], "free_energy": -8.717, "intermolecular_energy": -12.284, "internal_energy": -0.69}

$$$$
seed-5301
     RDKit          3D

 42 43  0  0  0  0  0  0  0  0999 V2000
  134.4250  124.8250  118.9750 C   0  0  0  0  0  0  0  0  0  0  0  0
  135.1210  125.0190  120.2060 O   0  0  0  0  0  0  0  0  0  0  0  0
  135.6200  123.8780  120.7420 C   0  0  0  0  0  0  0  0  0  0  0  0
  135.8090  122.8320  120.1410 O   0  0  0  0  0  0  0  0  0  0  0  0
  135.9180  124.0630  122.1890 C   0  0  0  0  0  0  0  0  0  0  0  0
  136.2360  125.3120  122.7380 C   0  0  0  0  0  0  0  0  0  0  0  0
  136.5040  125.4290  124.1030 C   0  0  0  0  0  0  0  0  0  0  0  0
  136.4530  124.3050  124.9280 C   0  0  0  0  0  0  0  0  0  0  0  0
  136.1310  123.0500  124.3970 C   0  0  0  0  0  0  0  0  0  0  0  0
  136.0930  121.8240  125.2810 C   0  0  0  0  0  0  0  0  0  0  0  0
  135.0990  121.9950  126.4440 C   0  0  0  0  0  0  0  0  0  0  0  0
  133.6670  122.0660  126.0960 N   0  0  0  0  0  0  0  0  0  0  0  0
  132.8940  121.0030  126.7340 C   0  0  0  0  0  0  0  0  0  0  0  0
  133.0510  123.3780  126.3550 C   0  0  0  0  0  0  0  0  0  0  0  0
  132.8220  124.2020  125.1060 C   0  0  0  0  0  0  0  0  0  0  0  0
  132.4390  123.5830  123.9070 C   0  0  0  0  0  0  0  0  0  0  0  0
  132.2380  124.3380  122.7500 C   0  0  0  0  0  0  0  0  0  0  0  0
  132.4180  125.7200  122.7800 C   0  0  0  0  0  0  0  0  0  0  0  0
  132.7970  126.3480  123.9650 C   0  0  0  0  0  0  0  0  0  0  0  0
  132.9950  125.5950  125.1230 C   0  0  0  0  0  0  0  0  0  0  0  0
  135.8700  122.9360  123.0230 C   0  0  0  0  0  0  0  0  0  0  0  0
  133.3847  124.5350  119.1837 H   0  0  0  0  0  0  0  0  0  0  0  0
  134.4358  125.7604  118.3963 H   0  0  0  0  0  0  0  0  0  0  0  0
  134.9181  124.0301  118.3963 H   0  0  0  0  0  0  0  0  0  0  0  0
  136.2746  126.2019  122.0925 H   0  0  0  0  0  0  0  0  0  0  0  0
  136.7563  126.4110  124.5297 H   0  0  0  0  0  0  0  0  0  0  0  0
  136.6671  124.4054  126.0023 H   0  0  0  0  0  0  0  0  0  0  0  0
  135.7891  120.9570  124.6761 H   0  0  0  0  0  0  0  0  0  0  0  0
  137.0968  121.6743  125.7053 H   0  0  0  0  0  0  0  0  0  0  0  0
  135.2334  121.1407  127.1238 H   0  0  0  0  0  0  0  0  0  0  0  0
  135.3360  122.9765  126.8805 H   0  0  0  0  0  0  0  0  0  0  0  0
  132.9664  121.1025  127.8271 H   0  0  0  0  0  0  0  0  0  0  0  0
  131.8404  121.0813  126.4276 H   0  0  0  0  0  0  0  0  0  0  0  0
  133.2932  120.0249  126.4276 H   0  0  0  0  0  0  0  0  0  0  0  0
  132.0801  123.2146  126.8457 H   0  0  0  0  0  0  0  0  0  0  0  0
  133.7523  123.9423  126.9873 H   0  0  0  0  0  0  0  0  0  0  0  0
  132.2957  122.4928  123.8781 H   0  0  0  0  0  0  0  0  0  0  0  0
  131.9377  123.8425  121.8150 H   0  0  0  0  0  0  0  0  0  0  0  0
  132.2609  126.3149  121.8682 H   0  0  0  0  0  0  0  0  0  0  0  0
  132.9402  127.4384  123.9875 H   0  0  0  0  0  0  0  0  0  0  0  0
  133.2890  126.0970  126.0566 H   0  0  0  0  0  0  0  0  0  0  0  0
  135.6252  121.9526  122.5953 H   0  0  0  0  0  0  0  0  0  0  0  0
  1  2  1  0
  2  3  1  0
  3  4  2  0
  3  5  1  0
  5  6  1  0
  6  7  2  0
  7  8  1  0
  8  9  2  0
  9 10  1  0
 10 11  1  0
 11 12  1  0
 12 13  1  0
 12 14  1  0
 14 15  1  0
 15 16  2  0
 16 17  1  0
 17 18  2  0
 18 19  1  0
 19 20  2  0
  9 21  1  0
 21  5  2  0
 20 15  1  0
  1 22  1  0
  1 23  1  0
  1 24  1  0
  6 25  1  0
  7 26  1  0
  8 27  1  0
 10 28  1  0
 10 29  1  0
 11 30  1  0
 11 31  1  0
 13 32  1  0
 13 33  1  0
 13 34  1  0
 14 35  1  0
 14 36  1  0
 16 37  1  0
 17 38  1  0
 18 39  1  0
 19 40  1  0
 20 41  1  0
 21 42  1  0
M  END
>  <meeko>  (2) 
{"is_sidechain": [false], "free_energy": -8.632, "intermolecular_energy": -10.291, "internal_energy": -2.564}

$$$$
seed-5301
     RDKit          3D

 42 43  0  0  0  0  0  0  0  0999 V2000
  130.0910  127.4410  128.5730 C   0  0  0  0  0  0  0  0  0  0  0  0
  130.3010  126.3900  127.6310 O   0  0  0  0  0  0  0  0  0  0  0  0
  131.3130  126.6250  126.7600 C   0  0  0  0  0  0  0  0  0  0  0  0
  131.9580  127.6580  126.6790 O   0  0  0  0  0  0  0  0  0  0  0  0
  131.5480  125.4370  125.8930 C   0  0  0  0  0  0  0  0  0  0  0  0
  131.3510  124.1260  126.3440 C   0  0  0  0  0  0  0  0  0  0  0  0
  131.5830  123.0480  125.4880 C   0  0  0  0  0  0  0  0  0  0  0  0
  132.0090  123.2710  124.1780 C   0  0  0  0  0  0  0  0  0  0  0  0
  132.2060  124.5760  123.7080 C   0  0  0  0  0  0  0  0  0  0  0  0
  132.6870  124.8250  122.2970 C   0  0  0  0  0  0  0  0  0  0  0  0
  134.0040  125.6220  122.2800 C   0  0  0  0  0  0  0  0  0  0  0  0
  135.2570  124.8450  122.2320 N   0  0  0  0  0  0  0  0  0  0  0  0
  136.0910  125.2200  121.0920 C   0  0  0  0  0  0  0  0  0  0  0  0
  136.0380  124.8870  123.4800 C   0  0  0  0  0  0  0  0  0  0  0  0
  135.6800  123.7930  124.4620 C   0  0  0  0  0  0  0  0  0  0  0  0
  135.6430  122.4530  124.0490 C   0  0  0  0  0  0  0  0  0  0  0  0
  135.3020  121.4420  124.9490 C   0  0  0  0  0  0  0  0  0  0  0  0
  134.9950  121.7600  126.2710 C   0  0  0  0  0  0  0  0  0  0  0  0
  135.0290  123.0880  126.6940 C   0  0  0  0  0  0  0  0  0  0  0  0
  135.3730  124.0990  125.7970 C   0  0  0  0  0  0  0  0  0  0  0  0
  131.9790  125.6550  124.5760 C   0  0  0  0  0  0  0  0  0  0  0  0
  130.1712  127.0397  129.5940 H   0  0  0  0  0  0  0  0  0  0  0  0
  130.8507  128.2227  128.4256 H   0  0  0  0  0  0  0  0  0  0  0  0
  129.0892  127.8708  128.4256 H   0  0  0  0  0  0  0  0  0  0  0  0
  131.0127  123.9453  127.3750 H   0  0  0  0  0  0  0  0  0  0  0  0
  131.4295  122.0197  125.8472 H   0  0  0  0  0  0  0  0  0  0  0  0
  132.1914  122.4164  123.5099 H   0  0  0  0  0  0  0  0  0  0  0  0
  132.8486  123.8576  121.7989 H   0  0  0  0  0  0  0  0  0  0  0  0
  131.9213  125.4142  121.7712 H   0  0  0  0  0  0  0  0  0  0  0  0
  133.9848  126.2756  121.3954 H   0  0  0  0  0  0  0  0  0  0  0  0
  134.0315  126.1485  123.2454 H   0  0  0  0  0  0  0  0  0  0  0  0
  137.0381  125.6458  121.4549 H   0  0  0  0  0  0  0  0  0  0  0  0
  136.2997  124.3291  120.4815 H   0  0  0  0  0  0  0  0  0  0  0  0
  135.5630  125.9674  120.4815 H   0  0  0  0  0  0  0  0  0  0  0  0
  137.1037  124.7894  123.2256 H   0  0  0  0  0  0  0  0  0  0  0  0
  135.8078  125.8447  123.9697 H   0  0  0  0  0  0  0  0  0  0  0  0
  135.8848  122.1967  123.0070 H   0  0  0  0  0  0  0  0  0  0  0  0
  135.2755  120.3943  124.6150 H   0  0  0  0  0  0  0  0  0  0  0  0
  134.7260  120.9634  126.9803 H   0  0  0  0  0  0  0  0  0  0  0  0
  134.7842  123.3387  127.7367 H   0  0  0  0  0  0  0  0  0  0  0  0
  135.4040  125.1442  126.1384 H   0  0  0  0  0  0  0  0  0  0  0  0
  132.1408  126.6831  124.2197 H   0  0  0  0  0  0  0  0  0  0  0  0
  1  2  1  0
  2  3  1  0
  3  4  2  0
  3  5  1  0
  5  6  1  0
  6  7  2  0
  7  8  1  0
  8  9  2  0
  9 10  1  0
 10 11  1  0
 11 12  1  0
 12 13  1  0
 12 14  1  0
 14 15  1  0
 15 16  2  0
 16 17  1  0
 17 18  2  0
 18 19  1  0
 19 20  2  0
  9 21  1  0
 21  5  2  0
 20 15  1  0
  1 22  1  0
  1 23  1  0
  1 24  1  0
  6 25  1  0
  7 26  1  0
  8 27  1  0
 10 28  1  0
 10 29  1  0
 11 30  1  0
 11 31  1  0
 13 32  1  0
 13 33  1  0
 13 34  1  0
 14 35  1  0
 14 36  1  0
 16 37  1  0
 17 38  1  0
 18 39  1  0
 19 40  1  0
 20 41  1  0
 21 42  1  0
M  END
>  <meeko>  (3) 
{"is_sidechain": [false], "free_energy": -8.496, "intermolecular_energy": -10.378, "internal_energy": -2.284}

$$$$
seed-5301
     RDKit          3D

 42 43  0  0  0  0  0  0  0  0999 V2000
  136.5760  127.5850  125.3380 C   0  0  0  0  0  0  0  0  0  0  0  0
  136.9620  126.4530  124.5590 O   0  0  0  0  0  0  0  0  0  0  0  0
  136.3160  126.3560  123.3710 C   0  0  0  0  0  0  0  0  0  0  0  0
  136.0440  127.2880  122.6300 O   0  0  0  0  0  0  0  0  0  0  0  0
  135.9730  124.9380  123.0720 C   0  0  0  0  0  0  0  0  0  0  0  0
  135.5750  124.5130  121.7980 C   0  0  0  0  0  0  0  0  0  0  0  0
  135.2680  123.1700  121.5730 C   0  0  0  0  0  0  0  0  0  0  0  0
  135.3590  122.2440  122.6130 C   0  0  0  0  0  0  0  0  0  0  0  0
  135.7620  122.6510  123.8910 C   0  0  0  0  0  0  0  0  0  0  0  0
  135.8440  121.6570  125.0270 C   0  0  0  0  0  0  0  0  0  0  0  0
  134.9720  122.0890  126.2200 C   0  0  0  0  0  0  0  0  0  0  0  0
  133.5100  122.0450  126.0320 N   0  0  0  0  0  0  0  0  0  0  0  0
  132.8910  120.9620  126.7940 C   0  0  0  0  0  0  0  0  0  0  0  0
  132.8300  123.3220  126.3030 C   0  0  0  0  0  0  0  0  0  0  0  0
  132.6190  124.1760  125.0720 C   0  0  0  0  0  0  0  0  0  0  0  0
  132.8230  125.5630  125.1260 C   0  0  0  0  0  0  0  0  0  0  0  0
  132.6180  126.3550  123.9950 C   0  0  0  0  0  0  0  0  0  0  0  0
  132.2070  125.7690  122.7990 C   0  0  0  0  0  0  0  0  0  0  0  0
  132.0020  124.3920  122.7320 C   0  0  0  0  0  0  0  0  0  0  0  0
  132.2090  123.5990  123.8600 C   0  0  0  0  0  0  0  0  0  0  0  0
  136.0610  124.0040  124.1140 C   0  0  0  0  0  0  0  0  0  0  0  0
  136.6595  127.3401  126.4071 H   0  0  0  0  0  0  0  0  0  0  0  0
  137.2356  128.4335  125.1036 H   0  0  0  0  0  0  0  0  0  0  0  0
  135.5354  127.8538  125.1036 H   0  0  0  0  0  0  0  0  0  0  0  0
  135.5043  125.2383  120.9740 H   0  0  0  0  0  0  0  0  0  0  0  0
  134.9531  122.8403  120.5719 H   0  0  0  0  0  0  0  0  0  0  0  0
  135.1127  121.1880  122.4279 H   0  0  0  0  0  0  0  0  0  0  0  0
  135.4988  120.6759  124.6689 H   0  0  0  0  0  0  0  0  0  0  0  0
  136.8895  121.6053  125.3650 H   0  0  0  0  0  0  0  0  0  0  0  0
  135.2176  121.4304  127.0661 H   0  0  0  0  0  0  0  0  0  0  0  0
  135.2079  123.1521  126.3757 H   0  0  0  0  0  0  0  0  0  0  0  0
  133.0040  121.1597  127.8702 H   0  0  0  0  0  0  0  0  0  0  0  0
  131.8218  120.9013  126.5426 H   0  0  0  0  0  0  0  0  0  0  0  0
  133.3814  120.0100  126.5426 H   0  0  0  0  0  0  0  0  0  0  0  0
  131.8471  123.1041  126.7463 H   0  0  0  0  0  0  0  0  0  0  0  0
  133.4809  123.8934  126.9810 H   0  0  0  0  0  0  0  0  0  0  0  0
  133.1472  126.0303  126.0675 H   0  0  0  0  0  0  0  0  0  0  0  0
  132.7808  127.4416  124.0476 H   0  0  0  0  0  0  0  0  0  0  0  0
  132.0444  126.3933  121.9080 H   0  0  0  0  0  0  0  0  0  0  0  0
  131.6765  123.9303  121.7881 H   0  0  0  0  0  0  0  0  0  0  0  0
  132.0497  122.5123  123.7995 H   0  0  0  0  0  0  0  0  0  0  0  0
  136.3677  124.3352  125.1171 H   0  0  0  0  0  0  0  0  0  0  0  0
  1  2  1  0
  2  3  1  0
  3  4  2  0
  3  5  1  0
  5  6  1  0
  6  7  2  0
  7  8  1  0
  8  9  2  0
  9 10  1  0
 10 11  1  0
 11 12  1  0
 12 13  1  0
 12 14  1  0
 14 15  1  0
 15 16  2  0
 16 17  1  0
 17 18  2  0
 18 19  1  0
 19 20  2  0
  9 21  1  0
 21  5  2  0
 20 15  1  0
  1 22  1  0
  1 23  1  0
  1 24  1  0
  6 25  1  0
  7 26  1  0
  8 27  1  0
 10 28  1  0
 10 29  1  0
 11 30  1  0
 11 31  1  0
 13 32  1  0
 13 33  1  0
 13 34  1  0
 14 35  1  0
 14 36  1  0
 16 37  1  0
 17 38  1  0
 18 39  1  0
 19 40  1  0
 20 41  1  0
 21 42  1  0
M  END
>  <meeko>  (4) 
{"is_sidechain": [false], "free_energy": -8.471, "intermolecular_energy": -10.028, "internal_energy": -2.599}

$$$$
seed-5301
     RDKit          3D

 42 43  0  0  0  0  0  0  0  0999 V2000
  134.8990  122.7940  117.3060 C   0  0  0  0  0  0  0  0  0  0  0  0
  135.0530  123.3390  118.6170 O   0  0  0  0  0  0  0  0  0  0  0  0
  134.6560  124.6320  118.7250 C   0  0  0  0  0  0  0  0  0  0  0  0
  134.2330  125.3260  117.8150 O   0  0  0  0  0  0  0  0  0  0  0  0
  134.8010  125.1110  120.1280 C   0  0  0  0  0  0  0  0  0  0  0  0
  136.0490  125.3730  120.7080 C   0  0  0  0  0  0  0  0  0  0  0  0
  136.1270  125.8240  122.0270 C   0  0  0  0  0  0  0  0  0  0  0  0
  134.9640  126.0200  122.7720 C   0  0  0  0  0  0  0  0  0  0  0  0
  133.7080  125.7690  122.2060 C   0  0  0  0  0  0  0  0  0  0  0  0
  132.4440  125.9590  123.0140 C   0  0  0  0  0  0  0  0  0  0  0  0
  132.7310  125.9400  124.5260 C   0  0  0  0  0  0  0  0  0  0  0  0
  132.2210  124.7850  125.2900 N   0  0  0  0  0  0  0  0  0  0  0  0
  130.8300  124.9700  125.6990 C   0  0  0  0  0  0  0  0  0  0  0  0
  132.3910  123.4910  124.6080 C   0  0  0  0  0  0  0  0  0  0  0  0
  133.6940  122.7950  124.9360 C   0  0  0  0  0  0  0  0  0  0  0  0
  134.7370  122.7630  123.9980 C   0  0  0  0  0  0  0  0  0  0  0  0
  135.9370  122.1120  124.2930 C   0  0  0  0  0  0  0  0  0  0  0  0
  136.1050  121.4860  125.5270 C   0  0  0  0  0  0  0  0  0  0  0  0
  135.0770  121.5110  126.4670 C   0  0  0  0  0  0  0  0  0  0  0  0
  133.8790  122.1640  126.1760 C   0  0  0  0  0  0  0  0  0  0  0  0
  133.6360  125.3080  120.8830 C   0  0  0  0  0  0  0  0  0  0  0  0
  134.6006  121.7379  117.3807 H   0  0  0  0  0  0  0  0  0  0  0  0
  134.1246  123.3564  116.7638 H   0  0  0  0  0  0  0  0  0  0  0  0
  135.8532  122.8679  116.7638 H   0  0  0  0  0  0  0  0  0  0  0  0
  136.9687  125.2232  120.1234 H   0  0  0  0  0  0  0  0  0  0  0  0
  137.1088  126.0255  122.4803 H   0  0  0  0  0  0  0  0  0  0  0  0
  135.0340  126.3741  123.8111 H   0  0  0  0  0  0  0  0  0  0  0  0
  131.9923  126.9262  122.7483 H   0  0  0  0  0  0  0  0  0  0  0  0
  131.7595  125.1295  122.7829 H   0  0  0  0  0  0  0  0  0  0  0  0
  133.8228  125.9686  124.6570 H   0  0  0  0  0  0  0  0  0  0  0  0
  132.1927  126.8101  124.9300 H   0  0  0  0  0  0  0  0  0  0  0  0
  130.7687  124.9782  126.7973 H   0  0  0  0  0  0  0  0  0  0  0  0
  130.4556  125.9258  125.3038 H   0  0  0  0  0  0  0  0  0  0  0  0
  130.2188  124.1452  125.3038 H   0  0  0  0  0  0  0  0  0  0  0  0
  131.5616  122.8316  124.9033 H   0  0  0  0  0  0  0  0  0  0  0  0
  132.4006  123.6969  123.5275 H   0  0  0  0  0  0  0  0  0  0  0  0
  134.6086  123.2546  123.0224 H   0  0  0  0  0  0  0  0  0  0  0  0
  136.7494  122.0933  123.5516 H   0  0  0  0  0  0  0  0  0  0  0  0
  137.0495  120.9721  125.7587 H   0  0  0  0  0  0  0  0  0  0  0  0
  135.2101  121.0152  127.4399 H   0  0  0  0  0  0  0  0  0  0  0  0
  133.0730  122.1845  126.9243 H   0  0  0  0  0  0  0  0  0  0  0  0
  132.6544  125.0987  120.4328 H   0  0  0  0  0  0  0  0  0  0  0  0
  1  2  1  0
  2  3  1  0
  3  4  2  0
  3  5  1  0
  5  6  1  0
  6  7  2  0
  7  8  1  0
  8  9  2  0
  9 10  1  0
 10 11  1  0
 11 12  1  0
 12 13  1  0
 12 14  1  0
 14 15  1  0
 15 16  2  0
 16 17  1  0
 17 18  2  0
 18 19  1  0
 19 20  2  0
  9 21  1  0
 21  5  2  0
 20 15  1  0
  1 22  1  0
  1 23  1  0
  1 24  1  0
  6 25  1  0
  7 26  1  0
  8 27  1  0
 10 28  1  0
 10 29  1  0
 11 30  1  0
 11 31  1  0
 13 32  1  0
 13 33  1  0
 13 34  1  0
 14 35  1  0
 14 36  1  0
 16 37  1  0
 17 38  1  0
 18 39  1  0
 19 40  1  0
 20 41  1  0
 21 42  1  0
M  END
>  <meeko>  (5) 
{"is_sidechain": [false], "free_energy": -8.42, "intermolecular_energy": -11.364, "internal_energy": -1.192}

$$$$
seed-5301
     RDKit          3D

 42 43  0  0  0  0  0  0  0  0999 V2000
  133.6950  124.1000  117.3140 C   0  0  0  0  0  0  0  0  0  0  0  0
  134.2870  124.9280  118.3140 O   0  0  0  0  0  0  0  0  0  0  0  0
  134.9820  124.2430  119.2560 C   0  0  0  0  0  0  0  0  0  0  0  0
  135.5760  123.1910  119.0780 O   0  0  0  0  0  0  0  0  0  0  0  0
  134.9340  124.9510  120.5650 C   0  0  0  0  0  0  0  0  0  0  0  0
  136.0800  125.4650  121.1850 C   0  0  0  0  0  0  0  0  0  0  0  0
  135.9770  126.1230  122.4110 C   0  0  0  0  0  0  0  0  0  0  0  0
  134.7330  126.2770  123.0240 C   0  0  0  0  0  0  0  0  0  0  0  0
  133.5760  125.7750  122.4160 C   0  0  0  0  0  0  0  0  0  0  0  0
  132.2270  125.9200  123.0830 C   0  0  0  0  0  0  0  0  0  0  0  0
  132.3560  125.9660  124.6160 C   0  0  0  0  0  0  0  0  0  0  0  0
  132.1350  124.7030  125.3450 N   0  0  0  0  0  0  0  0  0  0  0  0
  130.8070  124.6450  125.9520 C   0  0  0  0  0  0  0  0  0  0  0  0
  132.3890  123.4940  124.5440 C   0  0  0  0  0  0  0  0  0  0  0  0
  133.6720  122.7780  124.9080 C   0  0  0  0  0  0  0  0  0  0  0  0
  133.8120  122.1670  126.1630 C   0  0  0  0  0  0  0  0  0  0  0  0
  134.9980  121.5150  126.5070 C   0  0  0  0  0  0  0  0  0  0  0  0
  136.0550  121.4680  125.6000 C   0  0  0  0  0  0  0  0  0  0  0  0
  135.9280  122.0700  124.3500 C   0  0  0  0  0  0  0  0  0  0  0  0
  134.7430  122.7190  124.0030 C   0  0  0  0  0  0  0  0  0  0  0  0
  133.6860  125.1070  121.1860 C   0  0  0  0  0  0  0  0  0  0  0  0
  133.1202  123.2960  117.7968 H   0  0  0  0  0  0  0  0  0  0  0  0
  133.0236  124.7052  116.6871 H   0  0  0  0  0  0  0  0  0  0  0  0
  134.4849  123.6605  116.6871 H   0  0  0  0  0  0  0  0  0  0  0  0
  137.0628  125.3497  120.7045 H   0  0  0  0  0  0  0  0  0  0  0  0
  136.8800  126.5219  122.8962 H   0  0  0  0  0  0  0  0  0  0  0  0
  134.6609  126.7961  123.9911 H   0  0  0  0  0  0  0  0  0  0  0  0
  131.7554  126.8513  122.7362 H   0  0  0  0  0  0  0  0  0  0  0  0
  131.6145  125.0465  122.8149 H   0  0  0  0  0  0  0  0  0  0  0  0
  133.3727  126.3124  124.8532 H   0  0  0  0  0  0  0  0  0  0  0  0
  131.5485  126.6339  124.9506 H   0  0  0  0  0  0  0  0  0  0  0  0
  130.9042  124.6492  127.0477 H   0  0  0  0  0  0  0  0  0  0  0  0
  130.2194  125.5183  125.6326 H   0  0  0  0  0  0  0  0  0  0  0  0
  130.2978  123.7238  125.6326 H   0  0  0  0  0  0  0  0  0  0  0  0
  131.5499  122.7981  124.6909 H   0  0  0  0  0  0  0  0  0  0  0  0
  132.4890  123.8183  123.4977 H   0  0  0  0  0  0  0  0  0  0  0  0
  132.9804  122.2018  126.8822 H   0  0  0  0  0  0  0  0  0  0  0  0
  135.0979  121.0387  127.4935 H   0  0  0  0  0  0  0  0  0  0  0  0
  136.9898  120.9555  125.8711 H   0  0  0  0  0  0  0  0  0  0  0  0
  136.7636  122.0335  123.6355 H   0  0  0  0  0  0  0  0  0  0  0  0
  134.6473  123.1880  123.0126 H   0  0  0  0  0  0  0  0  0  0  0  0
  132.7840  124.7017  120.7042 H   0  0  0  0  0  0  0  0  0  0  0  0
  1  2  1  0
  2  3  1  0
  3  4  2  0
  3  5  1  0
  5  6  1  0
  6  7  2  0
  7  8  1  0
  8  9  2  0
  9 10  1  0
 10 11  1  0
 11 12  1  0
 12 13  1  0
 12 14  1  0
 14 15  1  0
 15 16  2  0
 16 17  1  0
 17 18  2  0
 18 19  1  0
 19 20  2  0
  9 21  1  0
 21  5  2  0
 20 15  1  0
  1 22  1  0
  1 23  1  0
  1 24  1  0
  6 25  1  0
  7 26  1  0
  8 27  1  0
 10 28  1  0
 10 29  1  0
 11 30  1  0
 11 31  1  0
 13 32  1  0
 13 33  1  0
 13 34  1  0
 14 35  1  0
 14 36  1  0
 16 37  1  0
 17 38  1  0
 18 39  1  0
 19 40  1  0
 20 41  1  0
 21 42  1  0
M  END
>  <meeko>  (6) 
{"is_sidechain": [false], "free_energy": -8.323, "intermolecular_energy": -11.136, "internal_energy": -1.282}

$$$$
seed-5301
     RDKit          3D

 42 43  0  0  0  0  0  0  0  0999 V2000
  134.5870  122.5060  117.4430 C   0  0  0  0  0  0  0  0  0  0  0  0
  135.3100  123.3320  118.3570 O   0  0  0  0  0  0  0  0  0  0  0  0
  134.6730  124.4850  118.6780 C   0  0  0  0  0  0  0  0  0  0  0  0
  134.2180  125.2930  117.8830 O   0  0  0  0  0  0  0  0  0  0  0  0
  134.5910  124.6470  120.1560 C   0  0  0  0  0  0  0  0  0  0  0  0
  133.8090  125.6380  120.7620 C   0  0  0  0  0  0  0  0  0  0  0  0
  133.7650  125.7430  122.1530 C   0  0  0  0  0  0  0  0  0  0  0  0
  134.4970  124.8590  122.9470 C   0  0  0  0  0  0  0  0  0  0  0  0
  135.2790  123.8580  122.3590 C   0  0  0  0  0  0  0  0  0  0  0  0
  136.0890  122.9090  123.2120 C   0  0  0  0  0  0  0  0  0  0  0  0
  135.1950  121.8550  123.8910 C   0  0  0  0  0  0  0  0  0  0  0  0
  135.6420  121.3420  125.2000 N   0  0  0  0  0  0  0  0  0  0  0  0
  136.8620  122.0000  125.6610 C   0  0  0  0  0  0  0  0  0  0  0  0
  134.6070  121.3830  126.2470 C   0  0  0  0  0  0  0  0  0  0  0  0
  133.5700  122.4660  126.0380 C   0  0  0  0  0  0  0  0  0  0  0  0
  133.8190  123.7790  126.4640 C   0  0  0  0  0  0  0  0  0  0  0  0
  132.8600  124.7770  126.2840 C   0  0  0  0  0  0  0  0  0  0  0  0
  131.6430  124.4730  125.6760 C   0  0  0  0  0  0  0  0  0  0  0  0
  131.3840  123.1730  125.2470 C   0  0  0  0  0  0  0  0  0  0  0  0
  132.3420  122.1750  125.4230 C   0  0  0  0  0  0  0  0  0  0  0  0
  135.3250  123.7620  120.9590 C   0  0  0  0  0  0  0  0  0  0  0  0
  133.9644  121.7946  118.0054 H   0  0  0  0  0  0  0  0  0  0  0  0
  133.9441  123.1352  116.8099 H   0  0  0  0  0  0  0  0  0  0  0  0
  135.2958  121.9521  116.8099 H   0  0  0  0  0  0  0  0  0  0  0  0
  133.2281  126.3352  120.1404 H   0  0  0  0  0  0  0  0  0  0  0  0
  133.1516  126.5247  122.6249 H   0  0  0  0  0  0  0  0  0  0  0  0
  134.4591  124.9495  124.0426 H   0  0  0  0  0  0  0  0  0  0  0  0
  136.8251  122.3963  122.5754 H   0  0  0  0  0  0  0  0  0  0  0  0
  136.5895  123.4939  123.9977 H   0  0  0  0  0  0  0  0  0  0  0  0
  134.2009  122.3042  124.0323 H   0  0  0  0  0  0  0  0  0  0  0  0
  135.2186  120.9843  123.2193 H   0  0  0  0  0  0  0  0  0  0  0  0
  136.8802  122.0098  126.7608 H   0  0  0  0  0  0  0  0  0  0  0  0
  137.7386  121.4523  125.2847 H   0  0  0  0  0  0  0  0  0  0  0  0
  136.8859  123.0333  125.2847 H   0  0  0  0  0  0  0  0  0  0  0  0
  134.0938  120.4102  126.2658 H   0  0  0  0  0  0  0  0  0  0  0  0
  135.1183  121.6072  127.1948 H   0  0  0  0  0  0  0  0  0  0  0  0
  134.7780  124.0242  126.9439 H   0  0  0  0  0  0  0  0  0  0  0  0
  133.0646  125.8036  126.6220 H   0  0  0  0  0  0  0  0  0  0  0  0
  130.8871  125.2596  125.5349 H   0  0  0  0  0  0  0  0  0  0  0  0
  130.4227  122.9335  124.7689 H   0  0  0  0  0  0  0  0  0  0  0  0
  132.1338  121.1517  125.0772 H   0  0  0  0  0  0  0  0  0  0  0  0
  135.9434  122.9843  120.4870 H   0  0  0  0  0  0  0  0  0  0  0  0
  1  2  1  0
  2  3  1  0
  3  4  2  0
  3  5  1  0
  5  6  1  0
  6  7  2  0
  7  8  1  0
  8  9  2  0
  9 10  1  0
 10 11  1  0
 11 12  1  0
 12 13  1  0
 12 14  1  0
 14 15  1  0
 15 16  2  0
 16 17  1  0
 17 18  2  0
 18 19  1  0
 19 20  2  0
  9 21  1  0
 21  5  2  0
 20 15  1  0
  1 22  1  0
  1 23  1  0
  1 24  1  0
  6 25  1  0
  7 26  1  0
  8 27  1  0
 10 28  1  0
 10 29  1  0
 11 30  1  0
 11 31  1  0
 13 32  1  0
 13 33  1  0
 13 34  1  0
 14 35  1  0
 14 36  1  0
 16 37  1  0
 17 38  1  0
 18 39  1  0
 19 40  1  0
 20 41  1  0
 21 42  1  0
M  END
>  <meeko>  (7) 
{"is_sidechain": [false], "free_energy": -8.111, "intermolecular_energy": -11.081, "internal_energy": -1.038}

$$$$
seed-5301
     RDKit          3D

 42 43  0  0  0  0  0  0  0  0999 V2000
  134.7120  122.2450  117.5050 C   0  0  0  0  0  0  0  0  0  0  0  0
  135.2430  123.2710  118.3430 O   0  0  0  0  0  0  0  0  0  0  0  0
  134.4750  124.3880  118.4000 C   0  0  0  0  0  0  0  0  0  0  0  0
  133.9570  124.9450  117.4450 O   0  0  0  0  0  0  0  0  0  0  0  0
  134.3350  124.8590  119.8050 C   0  0  0  0  0  0  0  0  0  0  0  0
  133.1150  124.8230  120.4930 C   0  0  0  0  0  0  0  0  0  0  0  0
  133.0400  125.2750  121.8110 C   0  0  0  0  0  0  0  0  0  0  0  0
  134.1800  125.7610  122.4530 C   0  0  0  0  0  0  0  0  0  0  0  0
  135.4090  125.7980  121.7830 C   0  0  0  0  0  0  0  0  0  0  0  0
  136.6440  126.3420  122.4640 C   0  0  0  0  0  0  0  0  0  0  0  0
  136.3900  126.6240  123.9560 C   0  0  0  0  0  0  0  0  0  0  0  0
  136.9770  125.6800  124.9260 N   0  0  0  0  0  0  0  0  0  0  0  0
  138.1600  126.2340  125.5820 C   0  0  0  0  0  0  0  0  0  0  0  0
  136.0220  125.1730  125.9260 C   0  0  0  0  0  0  0  0  0  0  0  0
  135.6400  123.7230  125.7250 C   0  0  0  0  0  0  0  0  0  0  0  0
  135.9140  123.0780  124.5100 C   0  0  0  0  0  0  0  0  0  0  0  0
  135.5530  121.7430  124.3170 C   0  0  0  0  0  0  0  0  0  0  0  0
  134.9140  121.0400  125.3370 C   0  0  0  0  0  0  0  0  0  0  0  0
  134.6380  121.6690  126.5500 C   0  0  0  0  0  0  0  0  0  0  0  0
  135.0010  123.0010  126.7450 C   0  0  0  0  0  0  0  0  0  0  0  0
  135.4760  125.3500  120.4550 C   0  0  0  0  0  0  0  0  0  0  0  0
  134.2957  121.4406  118.1292 H   0  0  0  0  0  0  0  0  0  0  0  0
  133.9179  122.6646  116.8700 H   0  0  0  0  0  0  0  0  0  0  0  0
  135.5132  121.8390  116.8700 H   0  0  0  0  0  0  0  0  0  0  0  0
  132.2142  124.4375  119.9930 H   0  0  0  0  0  0  0  0  0  0  0  0
  132.0791  125.2482  122.3458 H   0  0  0  0  0  0  0  0  0  0  0  0
  134.1126  126.1171  123.4916 H   0  0  0  0  0  0  0  0  0  0  0  0
  137.4558  125.6053  122.3730 H   0  0  0  0  0  0  0  0  0  0  0  0
  136.9171  127.2893  121.9762 H   0  0  0  0  0  0  0  0  0  0  0  0
  136.7944  127.6225  124.1784 H   0  0  0  0  0  0  0  0  0  0  0  0
  135.3020  126.5250  124.0840 H   0  0  0  0  0  0  0  0  0  0  0  0
  138.0353  126.1756  126.6733 H   0  0  0  0  0  0  0  0  0  0  0  0
  139.0484  125.6583  125.2832 H   0  0  0  0  0  0  0  0  0  0  0  0
  138.2866  127.2850  125.2832 H   0  0  0  0  0  0  0  0  0  0  0  0
  136.4755  125.2772  126.9227 H   0  0  0  0  0  0  0  0  0  0  0  0
  135.1011  125.7649  125.8186 H   0  0  0  0  0  0  0  0  0  0  0  0
  136.4178  123.6287  123.7020 H   0  0  0  0  0  0  0  0  0  0  0  0
  135.7728  121.2463  123.3604 H   0  0  0  0  0  0  0  0  0  0  0  0
  134.6275  119.9889  125.1848 H   0  0  0  0  0  0  0  0  0  0  0  0
  134.1332  121.1138  127.3543 H   0  0  0  0  0  0  0  0  0  0  0  0
  134.7848  123.4901  127.7063 H   0  0  0  0  0  0  0  0  0  0  0  0
  136.4351  125.3844  119.9175 H   0  0  0  0  0  0  0  0  0  0  0  0
  1  2  1  0
  2  3  1  0
  3  4  2  0
  3  5  1  0
  5  6  1  0
  6  7  2  0
  7  8  1  0
  8  9  2  0
  9 10  1  0
 10 11  1  0
 11 12  1  0
 12 13  1  0
 12 14  1  0
 14 15  1  0
 15 16  2  0
 16 17  1  0
 17 18  2  0
 18 19  1  0
 19 20  2  0
  9 21  1  0
 21  5  2  0
 20 15  1  0
  1 22  1  0
  1 23  1  0
  1 24  1  0
  6 25  1  0
  7 26  1  0
  8 27  1  0
 10 28  1  0
 10 29  1  0
 11 30  1  0
 11 31  1  0
 13 32  1  0
 13 33  1  0
 13 34  1  0
 14 35  1  0
 14 36  1  0
 16 37  1  0
 17 38  1  0
 18 39  1  0
 19 40  1  0
 20 41  1  0
 21 42  1  0
M  END
>  <meeko>  (8) 
{"is_sidechain": [false], "free_energy": -8.09, "intermolecular_energy": -11.042, "internal_energy": -1.048}

$$$$
seed-5301
     RDKit          3D

 42 43  0  0  0  0  0  0  0  0999 V2000
  136.5240  127.3530  125.1510 C   0  0  0  0  0  0  0  0  0  0  0  0
  137.3120  126.3350  124.5350 O   0  0  0  0  0  0  0  0  0  0  0  0
  136.6460  125.1720  124.3300 C   0  0  0  0  0  0  0  0  0  0  0  0
  136.8220  124.1310  124.9450 O   0  0  0  0  0  0  0  0  0  0  0  0
  135.6460  125.3240  123.2370 C   0  0  0  0  0  0  0  0  0  0  0  0
  136.0140  125.5550  121.9060 C   0  0  0  0  0  0  0  0  0  0  0  0
  135.0350  125.6870  120.9210 C   0  0  0  0  0  0  0  0  0  0  0  0
  133.6840  125.5840  121.2550 C   0  0  0  0  0  0  0  0  0  0  0  0
  133.2970  125.3470  122.5790 C   0  0  0  0  0  0  0  0  0  0  0  0
  131.8350  125.2540  122.9530 C   0  0  0  0  0  0  0  0  0  0  0  0
  131.4580  126.2940  124.0240 C   0  0  0  0  0  0  0  0  0  0  0  0
  130.1420  126.1410  124.6720 N   0  0  0  0  0  0  0  0  0  0  0  0
  130.2070  125.2800  125.8500 C   0  0  0  0  0  0  0  0  0  0  0  0
  129.4810  127.4160  125.0000 C   0  0  0  0  0  0  0  0  0  0  0  0
  128.8010  128.0730  123.8190 C   0  0  0  0  0  0  0  0  0  0  0  0
  127.8060  127.3910  123.1030 C   0  0  0  0  0  0  0  0  0  0  0  0
  127.1840  127.9900  122.0060 C   0  0  0  0  0  0  0  0  0  0  0  0
  127.5500  129.2760  121.6140 C   0  0  0  0  0  0  0  0  0  0  0  0
  128.5360  129.9650  122.3180 C   0  0  0  0  0  0  0  0  0  0  0  0
  129.1570  129.3700  123.4160 C   0  0  0  0  0  0  0  0  0  0  0  0
  134.2860  125.2240  123.5680 C   0  0  0  0  0  0  0  0  0  0  0  0
  136.5956  127.2606  126.2448 H   0  0  0  0  0  0  0  0  0  0  0  0
  136.8948  128.3413  124.8415 H   0  0  0  0  0  0  0  0  0  0  0  0
  135.4743  127.2418  124.8415 H   0  0  0  0  0  0  0  0  0  0  0  0
  137.0776  125.6326  121.6364 H   0  0  0  0  0  0  0  0  0  0  0  0
  135.3290  125.8729  119.8774 H   0  0  0  0  0  0  0  0  0  0  0  0
  132.9182  125.6898  120.4725 H   0  0  0  0  0  0  0  0  0  0  0  0
  131.2247  125.4289  122.0547 H   0  0  0  0  0  0  0  0  0  0  0  0
  131.6479  124.2515  123.3652 H   0  0  0  0  0  0  0  0  0  0  0  0
  132.2234  126.2504  124.8129 H   0  0  0  0  0  0  0  0  0  0  0  0
  131.4015  127.2513  123.4851 H   0  0  0  0  0  0  0  0  0  0  0  0
  130.1603  125.8979  126.7588 H   0  0  0  0  0  0  0  0  0  0  0  0
  129.3592  124.5792  125.8392 H   0  0  0  0  0  0  0  0  0  0  0  0
  131.1504  124.7144  125.8392 H   0  0  0  0  0  0  0  0  0  0  0  0
  128.7233  127.2247  125.7741 H   0  0  0  0  0  0  0  0  0  0  0  0
  130.2670  128.1057  125.3414 H   0  0  0  0  0  0  0  0  0  0  0  0
  127.5134  126.3756  123.4085 H   0  0  0  0  0  0  0  0  0  0  0  0
  126.4049  127.4467  121.4511 H   0  0  0  0  0  0  0  0  0  0  0  0
  127.0608  129.7475  120.7489 H   0  0  0  0  0  0  0  0  0  0  0  0
  128.8249  130.9798  122.0071 H   0  0  0  0  0  0  0  0  0  0  0  0
  129.9312  129.9208  123.9702 H   0  0  0  0  0  0  0  0  0  0  0  0
  133.9917  125.0474  124.6131 H   0  0  0  0  0  0  0  0  0  0  0  0
  1  2  1  0
  2  3  1  0
  3  4  2  0
  3  5  1  0
  5  6  1  0
  6  7  2  0
  7  8  1  0
  8  9  2  0
  9 10  1  0
 10 11  1  0
 11 12  1  0
 12 13  1  0
 12 14  1  0
 14 15  1  0
 15 16  2  0
 16 17  1  0
 17 18  2  0
 18 19  1  0
 19 20  2  0
  9 21  1  0
 21  5  2  0
 20 15  1  0
  1 22  1  0
  1 23  1  0
  1 24  1  0
  6 25  1  0
  7 26  1  0
  8 27  1  0
 10 28  1  0
 10 29  1  0
 11 30  1  0
 11 31  1  0
 13 32  1  0
 13 33  1  0
 13 34  1  0
 14 35  1  0
 14 36  1  0
 16 37  1  0
 17 38  1  0
 18 39  1  0
 19 40  1  0
 20 41  1  0
 21 42  1  0
M  END
>  <meeko>  (9) 
{"is_sidechain": [false], "free_energy": -7.903, "intermolecular_energy": -11.303, "internal_energy": -0.523}

$$$$
seed-5301
     RDKit          3D

 42 43  0  0  0  0  0  0  0  0999 V2000
  136.4780  127.6010  125.2830 C   0  0  0  0  0  0  0  0  0  0  0  0
  137.3560  126.6980  124.6100 O   0  0  0  0  0  0  0  0  0  0  0  0
  136.8580  125.4440  124.4740 C   0  0  0  0  0  0  0  0  0  0  0  0
  137.1970  124.4690  125.1270 O   0  0  0  0  0  0  0  0  0  0  0  0
  135.8200  125.4020  123.4080 C   0  0  0  0  0  0  0  0  0  0  0  0
  136.0280  125.9450  122.1340 C   0  0  0  0  0  0  0  0  0  0  0  0
  135.0210  125.8750  121.1700 C   0  0  0  0  0  0  0  0  0  0  0  0
  133.8040  125.2600  121.4690 C   0  0  0  0  0  0  0  0  0  0  0  0
  133.5810  124.7060  122.7350 C   0  0  0  0  0  0  0  0  0  0  0  0
  132.2590  124.0560  123.0730 C   0  0  0  0  0  0  0  0  0  0  0  0
  131.6310  124.6730  124.3360 C   0  0  0  0  0  0  0  0  0  0  0  0
  131.7510  123.9030  125.5880 N   0  0  0  0  0  0  0  0  0  0  0  0
  130.5490  124.0040  126.4120 C   0  0  0  0  0  0  0  0  0  0  0  0
  132.1250  122.4920  125.3920 C   0  0  0  0  0  0  0  0  0  0  0  0
  133.5250  122.1600  125.8620 C   0  0  0  0  0  0  0  0  0  0  0  0
  134.3030  121.2220  125.1660 C   0  0  0  0  0  0  0  0  0  0  0  0
  135.5910  120.9050  125.6020 C   0  0  0  0  0  0  0  0  0  0  0  0
  136.1130  121.5210  126.7380 C   0  0  0  0  0  0  0  0  0  0  0  0
  135.3510  122.4550  127.4380 C   0  0  0  0  0  0  0  0  0  0  0  0
  134.0650  122.7760  127.0010 C   0  0  0  0  0  0  0  0  0  0  0  0
  134.5950  124.7870  123.7030 C   0  0  0  0  0  0  0  0  0  0  0  0
  136.5933  127.4824  126.3705 H   0  0  0  0  0  0  0  0  0  0  0  0
  136.7261  128.6342  124.9985 H   0  0  0  0  0  0  0  0  0  0  0  0
  135.4383  127.3820  124.9985 H   0  0  0  0  0  0  0  0  0  0  0  0
  136.9866  126.4275  121.8926 H   0  0  0  0  0  0  0  0  0  0  0  0
  135.1869  126.3058  120.1716 H   0  0  0  0  0  0  0  0  0  0  0  0
  133.0147  125.2104  120.7044 H   0  0  0  0  0  0  0  0  0  0  0  0
  131.5680  124.1917  122.2279 H   0  0  0  0  0  0  0  0  0  0  0  0
  132.4397  122.9881  123.2650 H   0  0  0  0  0  0  0  0  0  0  0  0
  132.1084  125.6503  124.5004 H   0  0  0  0  0  0  0  0  0  0  0  0
  130.5516  124.7133  124.1278 H   0  0  0  0  0  0  0  0  0  0  0  0
  130.8302  123.9804  127.4752 H   0  0  0  0  0  0  0  0  0  0  0  0
  130.0310  124.9488  126.1907 H   0  0  0  0  0  0  0  0  0  0  0  0
  129.8806  123.1588  126.1907 H   0  0  0  0  0  0  0  0  0  0  0  0
  131.4141  121.8642  125.9492 H   0  0  0  0  0  0  0  0  0  0  0  0
  132.0968  122.3006  124.3091 H   0  0  0  0  0  0  0  0  0  0  0  0
  133.8947  120.7325  124.2695 H   0  0  0  0  0  0  0  0  0  0  0  0
  136.1935  120.1693  125.0491 H   0  0  0  0  0  0  0  0  0  0  0  0
  137.1271  121.2700  127.0824 H   0  0  0  0  0  0  0  0  0  0  0  0
  135.7635  122.9393  128.3354 H   0  0  0  0  0  0  0  0  0  0  0  0
  133.4701  123.5178  127.5540 H   0  0  0  0  0  0  0  0  0  0  0  0
  134.4264  124.3632  124.7040 H   0  0  0  0  0  0  0  0  0  0  0  0
  1  2  1  0
  2  3  1  0
  3  4  2  0
  3  5  1  0
  5  6  1  0
  6  7  2  0
  7  8  1  0
  8  9  2  0
  9 10  1  0
 10 11  1  0
 11 12  1  0
 12 13  1  0
 12 14  1  0
 14 15  1  0
 15 16  2  0
 16 17  1  0
 17 18  2  0
 18 19  1  0
 19 20  2  0
  9 21  1  0
 21  5  2  0
 20 15  1  0
  1 22  1  0
  1 23  1  0
  1 24  1  0
  6 25  1  0
  7 26  1  0
  8 27  1  0
 10 28  1  0
 10 29  1  0
 11 30  1  0
 11 31  1  0
 13 32  1  0
 13 33  1  0
 13 34  1  0
 14 35  1  0
 14 36  1  0
 16 37  1  0
 17 38  1  0
 18 39  1  0
 19 40  1  0
 20 41  1  0
 21 42  1  0
M  END
>  <meeko>  (10) 
{"is_sidechain": [false], "free_energy": -7.716, "intermolecular_energy": -10.241, "internal_energy": -1.322}

$$$$
seed-5301
     RDKit          3D

 42 43  0  0  0  0  0  0  0  0999 V2000
  131.9180  128.9120  129.0370 C   0  0  0  0  0  0  0  0  0  0  0  0
  131.8500  128.2370  127.7810 O   0  0  0  0  0  0  0  0  0  0  0  0
  130.6060  127.8100  127.4520 C   0  0  0  0  0  0  0  0  0  0  0  0
  129.6000  128.5010  127.4190 O   0  0  0  0  0  0  0  0  0  0  0  0
  130.6180  126.3570  127.1250 C   0  0  0  0  0  0  0  0  0  0  0  0
  129.7420  125.4430  127.7250 C   0  0  0  0  0  0  0  0  0  0  0  0
  129.7940  124.0920  127.3790 C   0  0  0  0  0  0  0  0  0  0  0  0
  130.7160  123.6450  126.4320 C   0  0  0  0  0  0  0  0  0  0  0  0
  131.5950  124.5450  125.8180 C   0  0  0  0  0  0  0  0  0  0  0  0
  132.6090  124.0650  124.8040 C   0  0  0  0  0  0  0  0  0  0  0  0
  133.9470  124.8140  124.9450 C   0  0  0  0  0  0  0  0  0  0  0  0
  135.0760  124.3260  124.1310 N   0  0  0  0  0  0  0  0  0  0  0  0
  136.1960  123.8790  124.9570 C   0  0  0  0  0  0  0  0  0  0  0  0
  134.7090  123.2870  123.1540 C   0  0  0  0  0  0  0  0  0  0  0  0
  134.7510  123.7570  121.7160 C   0  0  0  0  0  0  0  0  0  0  0  0
  134.1180  124.9520  121.3420 C   0  0  0  0  0  0  0  0  0  0  0  0
  134.1450  125.3830  120.0140 C   0  0  0  0  0  0  0  0  0  0  0  0
  134.8040  124.6240  119.0480 C   0  0  0  0  0  0  0  0  0  0  0  0
  135.4370  123.4360  119.4080 C   0  0  0  0  0  0  0  0  0  0  0  0
  135.4140  123.0050  120.7350 C   0  0  0  0  0  0  0  0  0  0  0  0
  131.5430  125.9010  126.1750 C   0  0  0  0  0  0  0  0  0  0  0  0
  131.8440  128.1775  129.8525 H   0  0  0  0  0  0  0  0  0  0  0  0
  132.8748  129.4493  129.1132 H   0  0  0  0  0  0  0  0  0  0  0  0
  131.0876  129.6293  129.1132 H   0  0  0  0  0  0  0  0  0  0  0  0
  129.0117  125.7910  128.4704 H   0  0  0  0  0  0  0  0  0  0  0  0
  129.1060  123.3774  127.8543 H   0  0  0  0  0  0  0  0  0  0  0  0
  130.7524  122.5782  126.1661 H   0  0  0  0  0  0  0  0  0  0  0  0
  132.7839  122.9895  124.9551 H   0  0  0  0  0  0  0  0  0  0  0  0
  132.2092  124.2595  123.7978 H   0  0  0  0  0  0  0  0  0  0  0  0
  133.7698  125.8645  124.6710 H   0  0  0  0  0  0  0  0  0  0  0  0
  134.2562  124.6530  125.9883 H   0  0  0  0  0  0  0  0  0  0  0  0
  135.9326  123.9841  126.0198 H   0  0  0  0  0  0  0  0  0  0  0  0
  136.4162  122.8241  124.7364 H   0  0  0  0  0  0  0  0  0  0  0  0
  137.0820  124.4924  124.7364 H   0  0  0  0  0  0  0  0  0  0  0  0
  135.4084  122.4452  123.2641 H   0  0  0  0  0  0  0  0  0  0  0  0
  133.6683  123.0011  123.3668 H   0  0  0  0  0  0  0  0  0  0  0  0
  133.5964  125.5540  122.1007 H   0  0  0  0  0  0  0  0  0  0  0  0
  133.6463  126.3214  119.7301 H   0  0  0  0  0  0  0  0  0  0  0  0
  134.8243  124.9629  118.0017 H   0  0  0  0  0  0  0  0  0  0  0  0
  135.9556  122.8370  118.6450 H   0  0  0  0  0  0  0  0  0  0  0  0
  135.9195  122.0687  121.0138 H   0  0  0  0  0  0  0  0  0  0  0  0
  132.2356  126.6143  125.7043 H   0  0  0  0  0  0  0  0  0  0  0  0
  1  2  1  0
  2  3  1  0
  3  4  2  0
  3  5  1  0
  5  6  1  0
  6  7  2  0
  7  8  1  0
  8  9  2  0
  9 10  1  0
 10 11  1  0
 11 12  1  0
 12 13  1  0
 12 14  1  0
 14 15  1  0
 15 16  2  0
 16 17  1  0
 17 18  2  0
 18 19  1  0
 19 20  2  0
  9 21  1  0
 21  5  2  0
 20 15  1  0
  1 22  1  0
  1 23  1  0
  1 24  1  0
  6 25  1  0
  7 26  1  0
  8 27  1  0
 10 28  1  0
 10 29  1  0
 11 30  1  0
 11 31  1  0
 13 32  1  0
 13 33  1  0
 13 34  1  0
 14 35  1  0
 14 36  1  0
 16 37  1  0
 17 38  1  0
 18 39  1  0
 19 40  1  0
 20 41  1  0
 21 42  1  0
M  END
>  <meeko>  (11) 
{"is_sidechain": [false], "free_energy": -7.685, "intermolecular_energy": -10.936, "internal_energy": -0.583}

$$$$
seed-5301
     RDKit          3D

 42 43  0  0  0  0  0  0  0  0999 V2000
  127.7960  128.2620  122.7990 C   0  0  0  0  0  0  0  0  0  0  0  0
  128.5140  127.4600  123.7360 O   0  0  0  0  0  0  0  0  0  0  0  0
  129.6060  128.0690  124.2600 C   0  0  0  0  0  0  0  0  0  0  0  0
  129.7160  129.2650  124.4840 O   0  0  0  0  0  0  0  0  0  0  0  0
  130.6800  127.0770  124.5400 C   0  0  0  0  0  0  0  0  0  0  0  0
  131.2110  126.8830  125.8210 C   0  0  0  0  0  0  0  0  0  0  0  0
  132.2150  125.9360  126.0270 C   0  0  0  0  0  0  0  0  0  0  0  0
  132.6920  125.1740  124.9600 C   0  0  0  0  0  0  0  0  0  0  0  0
  132.1690  125.3500  123.6730 C   0  0  0  0  0  0  0  0  0  0  0  0
  132.6940  124.5420  122.5080 C   0  0  0  0  0  0  0  0  0  0  0  0
  133.4410  125.4300  121.4960 C   0  0  0  0  0  0  0  0  0  0  0  0
  134.5680  124.8150  120.7700 N   0  0  0  0  0  0  0  0  0  0  0  0
  134.5910  125.2030  119.3610 C   0  0  0  0  0  0  0  0  0  0  0  0
  135.8830  125.0490  121.3910 C   0  0  0  0  0  0  0  0  0  0  0  0
  136.0370  124.4100  122.7540 C   0  0  0  0  0  0  0  0  0  0  0  0
  136.2750  125.2040  123.8870 C   0  0  0  0  0  0  0  0  0  0  0  0
  136.4290  124.6170  125.1440 C   0  0  0  0  0  0  0  0  0  0  0  0
  136.3470  123.2330  125.2820 C   0  0  0  0  0  0  0  0  0  0  0  0
  136.1100  122.4330  124.1650 C   0  0  0  0  0  0  0  0  0  0  0  0
  135.9530  123.0180  122.9090 C   0  0  0  0  0  0  0  0  0  0  0  0
  131.1650  126.3090  123.4700 C   0  0  0  0  0  0  0  0  0  0  0  0
  127.1573  128.9754  123.3405 H   0  0  0  0  0  0  0  0  0  0  0  0
  128.5078  128.8135  122.1671 H   0  0  0  0  0  0  0  0  0  0  0  0
  127.1695  127.6153  122.1671 H   0  0  0  0  0  0  0  0  0  0  0  0
  130.8360  127.4783  126.6666 H   0  0  0  0  0  0  0  0  0  0  0  0
  132.6319  125.7897  127.0344 H   0  0  0  0  0  0  0  0  0  0  0  0
  133.4841  124.4301  125.1309 H   0  0  0  0  0  0  0  0  0  0  0  0
  133.3843  123.7744  122.8877 H   0  0  0  0  0  0  0  0  0  0  0  0
  131.8377  124.0796  121.9951 H   0  0  0  0  0  0  0  0  0  0  0  0
  132.7092  125.7683  120.7477 H   0  0  0  0  0  0  0  0  0  0  0  0
  133.8926  126.2321  122.0983 H   0  0  0  0  0  0  0  0  0  0  0  0
  134.6560  126.2983  119.2833 H   0  0  0  0  0  0  0  0  0  0  0  0
  135.4638  124.7482  118.8696 H   0  0  0  0  0  0  0  0  0  0  0  0
  133.6706  124.8545  118.8696 H   0  0  0  0  0  0  0  0  0  0  0  0
  136.6581  124.6397  120.7265 H   0  0  0  0  0  0  0  0  0  0  0  0
  135.9813  126.1353  121.5334 H   0  0  0  0  0  0  0  0  0  0  0  0
  136.3406  126.2971  123.7834 H   0  0  0  0  0  0  0  0  0  0  0  0
  136.6152  125.2474  126.0260 H   0  0  0  0  0  0  0  0  0  0  0  0
  136.4693  122.7712  126.2729 H   0  0  0  0  0  0  0  0  0  0  0  0
  136.0469  121.3403  124.2745 H   0  0  0  0  0  0  0  0  0  0  0  0
  135.7616  122.3825  122.0318 H   0  0  0  0  0  0  0  0  0  0  0  0
  130.7535  126.4605  122.4612 H   0  0  0  0  0  0  0  0  0  0  0  0
  1  2  1  0
  2  3  1  0
  3  4  2  0
  3  5  1  0
  5  6  1  0
  6  7  2  0
  7  8  1  0
  8  9  2  0
  9 10  1  0
 10 11  1  0
 11 12  1  0
 12 13  1  0
 12 14  1  0
 14 15  1  0
 15 16  2  0
 16 17  1  0
 17 18  2  0
 18 19  1  0
 19 20  2  0
  9 21  1  0
 21  5  2  0
 20 15  1  0
  1 22  1  0
  1 23  1  0
  1 24  1  0
  6 25  1  0
  7 26  1  0
  8 27  1  0
 10 28  1  0
 10 29  1  0
 11 30  1  0
 11 31  1  0
 13 32  1  0
 13 33  1  0
 13 34  1  0
 14 35  1  0
 14 36  1  0
 16 37  1  0
 17 38  1  0
 18 39  1  0
 19 40  1  0
 20 41  1  0
 21 42  1  0
M  END
>  <meeko>  (12) 
{"is_sidechain": [false], "free_energy": -7.645, "intermolecular_energy": -10.305, "internal_energy": -1.159}

$$$$
seed-5301
     RDKit          3D

 42 43  0  0  0  0  0  0  0  0999 V2000
  127.9380  128.8870  122.4800 C   0  0  0  0  0  0  0  0  0  0  0  0
  128.6660  127.9650  123.2920 O   0  0  0  0  0  0  0  0  0  0  0  0
  129.7910  128.4850  123.8420 C   0  0  0  0  0  0  0  0  0  0  0  0
  130.1150  129.6620  123.8220 O   0  0  0  0  0  0  0  0  0  0  0  0
  130.6020  127.4170  124.4910 C   0  0  0  0  0  0  0  0  0  0  0  0
  130.8940  127.4220  125.8610 C   0  0  0  0  0  0  0  0  0  0  0  0
  131.6560  126.3940  126.4180 C   0  0  0  0  0  0  0  0  0  0  0  0
  132.1270  125.3550  125.6150 C   0  0  0  0  0  0  0  0  0  0  0  0
  131.8390  125.3300  124.2460 C   0  0  0  0  0  0  0  0  0  0  0  0
  132.3630  124.2180  123.3660 C   0  0  0  0  0  0  0  0  0  0  0  0
  133.4740  124.7160  122.4250 C   0  0  0  0  0  0  0  0  0  0  0  0
  134.6900  123.8860  122.3250 N   0  0  0  0  0  0  0  0  0  0  0  0
  135.3350  124.0130  121.0190 C   0  0  0  0  0  0  0  0  0  0  0  0
  135.6640  124.1140  123.4060 C   0  0  0  0  0  0  0  0  0  0  0  0
  135.4680  123.2120  124.6050 C   0  0  0  0  0  0  0  0  0  0  0  0
  135.3420  121.8250  124.4360 C   0  0  0  0  0  0  0  0  0  0  0  0
  135.1500  120.9900  125.5390 C   0  0  0  0  0  0  0  0  0  0  0  0
  135.0810  121.5340  126.8200 C   0  0  0  0  0  0  0  0  0  0  0  0
  135.2050  122.9100  127.0010 C   0  0  0  0  0  0  0  0  0  0  0  0
  135.4010  123.7450  125.9010 C   0  0  0  0  0  0  0  0  0  0  0  0
  131.0800  126.3710  123.6890 C   0  0  0  0  0  0  0  0  0  0  0  0
  127.3857  129.5865  123.1246 H   0  0  0  0  0  0  0  0  0  0  0  0
  128.6387  129.4489  121.8450 H   0  0  0  0  0  0  0  0  0  0  0  0
  127.2289  128.3357  121.8450 H   0  0  0  0  0  0  0  0  0  0  0  0
  130.5221  128.2374  126.4988 H   0  0  0  0  0  0  0  0  0  0  0  0
  131.8860  126.4030  127.4937 H   0  0  0  0  0  0  0  0  0  0  0  0
  132.7290  124.5497  126.0612 H   0  0  0  0  0  0  0  0  0  0  0  0
  132.7674  123.4184  124.0040 H   0  0  0  0  0  0  0  0  0  0  0  0
  131.5312  123.8461  122.7497 H   0  0  0  0  0  0  0  0  0  0  0  0
  133.0431  124.7960  121.4161 H   0  0  0  0  0  0  0  0  0  0  0  0
  133.8128  125.6671  122.8616 H   0  0  0  0  0  0  0  0  0  0  0  0
  136.4057  124.2238  121.1578 H   0  0  0  0  0  0  0  0  0  0  0  0
  135.2158  123.0741  120.4583 H   0  0  0  0  0  0  0  0  0  0  0  0
  134.8688  124.8366  120.4583 H   0  0  0  0  0  0  0  0  0  0  0  0
  136.6738  123.9429  123.0047 H   0  0  0  0  0  0  0  0  0  0  0  0
  135.5191  125.1470  123.7552 H   0  0  0  0  0  0  0  0  0  0  0  0
  135.3949  121.3915  123.4264 H   0  0  0  0  0  0  0  0  0  0  0  0
  135.0533  119.9036  125.3965 H   0  0  0  0  0  0  0  0  0  0  0  0
  134.9285  120.8768  127.6888 H   0  0  0  0  0  0  0  0  0  0  0  0
  135.1483  123.3383  128.0126 H   0  0  0  0  0  0  0  0  0  0  0  0
  135.5038  124.8299  126.0509 H   0  0  0  0  0  0  0  0  0  0  0  0
  130.8578  126.3662  122.6117 H   0  0  0  0  0  0  0  0  0  0  0  0
  1  2  1  0
  2  3  1  0
  3  4  2  0
  3  5  1  0
  5  6  1  0
  6  7  2  0
  7  8  1  0
  8  9  2  0
  9 10  1  0
 10 11  1  0
 11 12  1  0
 12 13  1  0
 12 14  1  0
 14 15  1  0
 15 16  2  0
 16 17  1  0
 17 18  2  0
 18 19  1  0
 19 20  2  0
  9 21  1  0
 21  5  2  0
 20 15  1  0
  1 22  1  0
  1 23  1  0
  1 24  1  0
  6 25  1  0
  7 26  1  0
  8 27  1  0
 10 28  1  0
 10 29  1  0
 11 30  1  0
 11 31  1  0
 13 32  1  0
 13 33  1  0
 13 34  1  0
 14 35  1  0
 14 36  1  0
 16 37  1  0
 17 38  1  0
 18 39  1  0
 19 40  1  0
 20 41  1  0
 21 42  1  0
M  END
>  <meeko>  (13) 
{"is_sidechain": [false], "free_energy": -7.563, "intermolecular_energy": -10.341, "internal_energy": -1.007}

$$$$
seed-5301
     RDKit          3D

 42 43  0  0  0  0  0  0  0  0999 V2000
  133.4680  123.5860  116.9600 C   0  0  0  0  0  0  0  0  0  0  0  0
  134.5200  123.6770  117.9220 O   0  0  0  0  0  0  0  0  0  0  0  0
  134.4880  124.8110  118.6650 C   0  0  0  0  0  0  0  0  0  0  0  0
  134.4540  125.9500  118.2270 O   0  0  0  0  0  0  0  0  0  0  0  0
  134.4960  124.4880  120.1190 C   0  0  0  0  0  0  0  0  0  0  0  0
  135.3160  123.4910  120.6630 C   0  0  0  0  0  0  0  0  0  0  0  0
  135.2870  123.2310  122.0340 C   0  0  0  0  0  0  0  0  0  0  0  0
  134.4440  123.9650  122.8700 C   0  0  0  0  0  0  0  0  0  0  0  0
  133.6230  124.9690  122.3440 C   0  0  0  0  0  0  0  0  0  0  0  0
  132.6930  125.7560  123.2410 C   0  0  0  0  0  0  0  0  0  0  0  0
  132.5600  125.1040  124.6290 C   0  0  0  0  0  0  0  0  0  0  0  0
  131.3260  124.3410  124.8950 N   0  0  0  0  0  0  0  0  0  0  0  0
  131.5250  122.9020  124.7350 C   0  0  0  0  0  0  0  0  0  0  0  0
  130.7070  124.6350  126.1990 C   0  0  0  0  0  0  0  0  0  0  0  0
  130.1400  126.0340  126.3040 C   0  0  0  0  0  0  0  0  0  0  0  0
  130.5740  126.9010  127.3180 C   0  0  0  0  0  0  0  0  0  0  0  0
  130.0450  128.1890  127.4250 C   0  0  0  0  0  0  0  0  0  0  0  0
  129.0760  128.6220  126.5210 C   0  0  0  0  0  0  0  0  0  0  0  0
  128.6370  127.7700  125.5090 C   0  0  0  0  0  0  0  0  0  0  0  0
  129.1670  126.4840  125.3980 C   0  0  0  0  0  0  0  0  0  0  0  0
  133.6510  125.2210  120.9640 C   0  0  0  0  0  0  0  0  0  0  0  0
  132.5021  123.5024  117.4797 H   0  0  0  0  0  0  0  0  0  0  0  0
  133.4685  124.4875  116.3297 H   0  0  0  0  0  0  0  0  0  0  0  0
  133.6233  122.6979  116.3297 H   0  0  0  0  0  0  0  0  0  0  0  0
  135.9840  122.9119  120.0084 H   0  0  0  0  0  0  0  0  0  0  0  0
  135.9304  122.4454  122.4569 H   0  0  0  0  0  0  0  0  0  0  0  0
  134.4248  123.7530  123.9492 H   0  0  0  0  0  0  0  0  0  0  0  0
  133.0902  126.7747  123.3615 H   0  0  0  0  0  0  0  0  0  0  0  0
  131.6978  125.7758  122.7729 H   0  0  0  0  0  0  0  0  0  0  0  0
  133.4091  124.4162  124.7553 H   0  0  0  0  0  0  0  0  0  0  0  0
  132.5346  125.9445  125.3382 H   0  0  0  0  0  0  0  0  0  0  0  0
  131.5905  122.4285  125.7257 H   0  0  0  0  0  0  0  0  0  0  0  0
  130.6775  122.4742  124.1794 H   0  0  0  0  0  0  0  0  0  0  0  0
  132.4568  122.7202  124.1794 H   0  0  0  0  0  0  0  0  0  0  0  0
  129.8908  123.9166  126.3654 H   0  0  0  0  0  0  0  0  0  0  0  0
  131.5006  124.5532  126.9563 H   0  0  0  0  0  0  0  0  0  0  0  0
  131.3372  126.5635  128.0346 H   0  0  0  0  0  0  0  0  0  0  0  0
  130.3929  128.8619  128.2226 H   0  0  0  0  0  0  0  0  0  0  0  0
  128.6580  129.6359  126.6064 H   0  0  0  0  0  0  0  0  0  0  0  0
  127.8716  128.1119  124.7968 H   0  0  0  0  0  0  0  0  0  0  0  0
  128.8197  125.8179  124.5945 H   0  0  0  0  0  0  0  0  0  0  0  0
  133.0028  126.0023  120.5405 H   0  0  0  0  0  0  0  0  0  0  0  0
  1  2  1  0
  2  3  1  0
  3  4  2  0
  3  5  1  0
  5  6  1  0
  6  7  2  0
  7  8  1  0
  8  9  2  0
  9 10  1  0
 10 11  1  0
 11 12  1  0
 12 13  1  0
 12 14  1  0
 14 15  1  0
 15 16  2  0
 16 17  1  0
 17 18  2  0
 18 19  1  0
 19 20  2  0
  9 21  1  0
 21  5  2  0
 20 15  1  0
  1 22  1  0
  1 23  1  0
  1 24  1  0
  6 25  1  0
  7 26  1  0
  8 27  1  0
 10 28  1  0
 10 29  1  0
 11 30  1  0
 11 31  1  0
 13 32  1  0
 13 33  1  0
 13 34  1  0
 14 35  1  0
 14 36  1  0
 16 37  1  0
 17 38  1  0
 18 39  1  0
 19 40  1  0
 20 41  1  0
 21 42  1  0
M  END
>  <meeko>  (14) 
{"is_sidechain": [false], "free_energy": -7.417, "intermolecular_energy": -10.478, "internal_energy": -0.664}

$$$$
seed-5301
     RDKit          3D

 42 43  0  0  0  0  0  0  0  0999 V2000
  137.5030  125.8510  125.3200 C   0  0  0  0  0  0  0  0  0  0  0  0
  136.9730  124.5380  125.1410 O   0  0  0  0  0  0  0  0  0  0  0  0
  135.8870  124.4890  124.3300 C   0  0  0  0  0  0  0  0  0  0  0  0
  135.8520  124.8500  123.1640 O   0  0  0  0  0  0  0  0  0  0  0  0
  134.7150  123.9220  125.0530 C   0  0  0  0  0  0  0  0  0  0  0  0
  134.7800  122.7150  125.7610 C   0  0  0  0  0  0  0  0  0  0  0  0
  133.6510  122.2310  126.4240 C   0  0  0  0  0  0  0  0  0  0  0  0
  132.4540  122.9480  126.3890 C   0  0  0  0  0  0  0  0  0  0  0  0
  132.3740  124.1590  125.6910 C   0  0  0  0  0  0  0  0  0  0  0  0
  131.0750  124.9320  125.6320 C   0  0  0  0  0  0  0  0  0  0  0  0
  131.1560  126.2360  126.4460 C   0  0  0  0  0  0  0  0  0  0  0  0
  130.0950  127.2350  126.2160 N   0  0  0  0  0  0  0  0  0  0  0  0
  129.6440  127.8530  127.4610 C   0  0  0  0  0  0  0  0  0  0  0  0
  130.4460  128.2680  125.2260 C   0  0  0  0  0  0  0  0  0  0  0  0
  129.4240  128.4280  124.1210 C   0  0  0  0  0  0  0  0  0  0  0  0
  128.5350  127.3850  123.8200 C   0  0  0  0  0  0  0  0  0  0  0  0
  127.5980  127.5250  122.7950 C   0  0  0  0  0  0  0  0  0  0  0  0
  127.5410  128.7080  122.0600 C   0  0  0  0  0  0  0  0  0  0  0  0
  128.4180  129.7520  122.3500 C   0  0  0  0  0  0  0  0  0  0  0  0
  129.3520  129.6150  123.3770 C   0  0  0  0  0  0  0  0  0  0  0  0
  133.5100  124.6370  125.0200 C   0  0  0  0  0  0  0  0  0  0  0  0
  137.5905  126.0677  126.3949 H   0  0  0  0  0  0  0  0  0  0  0  0
  138.4964  125.9124  124.8515 H   0  0  0  0  0  0  0  0  0  0  0  0
  136.8307  126.5848  124.8515 H   0  0  0  0  0  0  0  0  0  0  0  0
  135.7219  122.1479  125.7945 H   0  0  0  0  0  0  0  0  0  0  0  0
  133.7049  121.2811  126.9761 H   0  0  0  0  0  0  0  0  0  0  0  0
  131.5683  122.5593  126.9129 H   0  0  0  0  0  0  0  0  0  0  0  0
  130.8534  125.1787  124.5832 H   0  0  0  0  0  0  0  0  0  0  0  0
  130.2808  124.3050  126.0635 H   0  0  0  0  0  0  0  0  0  0  0  0
  131.1309  125.9643  127.5116 H   0  0  0  0  0  0  0  0  0  0  0  0
  132.0846  126.7233  126.1140 H   0  0  0  0  0  0  0  0  0  0  0  0
  130.0517  127.2943  128.3164 H   0  0  0  0  0  0  0  0  0  0  0  0
  129.9959  128.8944  127.5019 H   0  0  0  0  0  0  0  0  0  0  0  0
  128.5449  127.8355  127.5019 H   0  0  0  0  0  0  0  0  0  0  0  0
  130.5445  129.2306  125.7493 H   0  0  0  0  0  0  0  0  0  0  0  0
  131.3851  127.9494  124.7500 H   0  0  0  0  0  0  0  0  0  0  0  0
  128.5769  126.4492  124.3966 H   0  0  0  0  0  0  0  0  0  0  0  0
  126.9047  126.7019  122.5673 H   0  0  0  0  0  0  0  0  0  0  0  0
  126.8038  128.8177  121.2510 H   0  0  0  0  0  0  0  0  0  0  0  0
  128.3735  130.6847  121.7685 H   0  0  0  0  0  0  0  0  0  0  0  0
  130.0375  130.4444  123.6053 H   0  0  0  0  0  0  0  0  0  0  0  0
  133.4541  125.5833  124.4620 H   0  0  0  0  0  0  0  0  0  0  0  0
  1  2  1  0
  2  3  1  0
  3  4  2  0
  3  5  1  0
  5  6  1  0
  6  7  2  0
  7  8  1  0
  8  9  2  0
  9 10  1  0
 10 11  1  0
 11 12  1  0
 12 13  1  0
 12 14  1  0
 14 15  1  0
 15 16  2  0
 16 17  1  0
 17 18  2  0
 18 19  1  0
 19 20  2  0
  9 21  1  0
 21  5  2  0
 20 15  1  0
  1 22  1  0
  1 23  1  0
  1 24  1  0
  6 25  1  0
  7 26  1  0
  8 27  1  0
 10 28  1  0
 10 29  1  0
 11 30  1  0
 11 31  1  0
 13 32  1  0
 13 33  1  0
 13 34  1  0
 14 35  1  0
 14 36  1  0
 16 37  1  0
 17 38  1  0
 18 39  1  0
 19 40  1  0
 20 41  1  0
 21 42  1  0
M  END
>  <meeko>  (15) 
{"is_sidechain": [false], "free_energy": -7.415, "intermolecular_energy": -10.533, "internal_energy": -0.606}

$$$$
seed-5301
     RDKit          3D

 42 43  0  0  0  0  0  0  0  0999 V2000
  135.0690  122.4470  116.2130 C   0  0  0  0  0  0  0  0  0  0  0  0
  135.2690  123.3270  117.3190 O   0  0  0  0  0  0  0  0  0  0  0  0
  135.2540  122.7080  118.5250 C   0  0  0  0  0  0  0  0  0  0  0  0
  135.3330  121.5030  118.7090 O   0  0  0  0  0  0  0  0  0  0  0  0
  135.1300  123.7030  119.6260 C   0  0  0  0  0  0  0  0  0  0  0  0
  134.5930  124.9810  119.4290 C   0  0  0  0  0  0  0  0  0  0  0  0
  134.4960  125.8730  120.4970 C   0  0  0  0  0  0  0  0  0  0  0  0
  134.9310  125.4960  121.7690 C   0  0  0  0  0  0  0  0  0  0  0  0
  135.4650  124.2200  121.9860 C   0  0  0  0  0  0  0  0  0  0  0  0
  135.9570  123.8110  123.3560 C   0  0  0  0  0  0  0  0  0  0  0  0
  134.9720  122.8500  124.0460 C   0  0  0  0  0  0  0  0  0  0  0  0
  134.0690  123.4280  125.0590 N   0  0  0  0  0  0  0  0  0  0  0  0
  134.7520  124.3980  125.9130 C   0  0  0  0  0  0  0  0  0  0  0  0
  132.8360  124.0100  124.5020 C   0  0  0  0  0  0  0  0  0  0  0  0
  131.7980  124.3570  125.5470 C   0  0  0  0  0  0  0  0  0  0  0  0
  131.5110  125.6970  125.8450 C   0  0  0  0  0  0  0  0  0  0  0  0
  130.5620  126.0210  126.8170 C   0  0  0  0  0  0  0  0  0  0  0  0
  129.8910  125.0080  127.5000 C   0  0  0  0  0  0  0  0  0  0  0  0
  130.1660  123.6720  127.2130 C   0  0  0  0  0  0  0  0  0  0  0  0
  131.1110  123.3470  126.2400 C   0  0  0  0  0  0  0  0  0  0  0  0
  135.5670  123.3300  120.9060 C   0  0  0  0  0  0  0  0  0  0  0  0
  134.8396  121.4374  116.5846 H   0  0  0  0  0  0  0  0  0  0  0  0
  134.2309  122.8118  115.6011 H   0  0  0  0  0  0  0  0  0  0  0  0
  135.9825  122.4137  115.6011 H   0  0  0  0  0  0  0  0  0  0  0  0
  134.2467  125.2824  118.4294 H   0  0  0  0  0  0  0  0  0  0  0  0
  134.0754  126.8767  120.3365 H   0  0  0  0  0  0  0  0  0  0  0  0
  134.8537  126.2058  122.6058 H   0  0  0  0  0  0  0  0  0  0  0  0
  136.9307  123.3101  123.2512 H   0  0  0  0  0  0  0  0  0  0  0  0
  136.0465  124.7161  123.9748 H   0  0  0  0  0  0  0  0  0  0  0  0
  134.3457  122.3984  123.2626 H   0  0  0  0  0  0  0  0  0  0  0  0
  135.6056  122.1417  124.6000 H   0  0  0  0  0  0  0  0  0  0  0  0
  134.5745  124.1459  126.9689 H   0  0  0  0  0  0  0  0  0  0  0  0
  135.8321  124.3719  125.7064 H   0  0  0  0  0  0  0  0  0  0  0  0
  134.3634  125.4061  125.7064 H   0  0  0  0  0  0  0  0  0  0  0  0
  133.1011  124.9286  123.9581 H   0  0  0  0  0  0  0  0  0  0  0  0
  132.3890  123.2472  123.8475 H   0  0  0  0  0  0  0  0  0  0  0  0
  132.0379  126.4998  125.3085 H   0  0  0  0  0  0  0  0  0  0  0  0
  130.3441  127.0752  127.0435 H   0  0  0  0  0  0  0  0  0  0  0  0
  129.1439  125.2631  128.2660 H   0  0  0  0  0  0  0  0  0  0  0  0
  129.6374  122.8735  127.7542 H   0  0  0  0  0  0  0  0  0  0  0  0
  131.3199  122.2910  126.0136 H   0  0  0  0  0  0  0  0  0  0  0  0
  135.9943  122.3289  121.0646 H   0  0  0  0  0  0  0  0  0  0  0  0
  1  2  1  0
  2  3  1  0
  3  4  2  0
  3  5  1  0
  5  6  1  0
  6  7  2  0
  7  8  1  0
  8  9  2  0
  9 10  1  0
 10 11  1  0
 11 12  1  0
 12 13  1  0
 12 14  1  0
 14 15  1  0
 15 16  2  0
 16 17  1  0
 17 18  2  0
 18 19  1  0
 19 20  2  0
  9 21  1  0
 21  5  2  0
 20 15  1  0
  1 22  1  0
  1 23  1  0
  1 24  1  0
  6 25  1  0
  7 26  1  0
  8 27  1  0
 10 28  1  0
 10 29  1  0
 11 30  1  0
 11 31  1  0
 13 32  1  0
 13 33  1  0
 13 34  1  0
 14 35  1  0
 14 36  1  0
 16 37  1  0
 17 38  1  0
 18 39  1  0
 19 40  1  0
 20 41  1  0
 21 42  1  0
M  END
>  <meeko>  (16) 
{"is_sidechain": [false], "free_energy": -7.367, "intermolecular_energy": -10.56, "internal_energy": -0.511}

$$$$
seed-5301
     RDKit          3D

 42 43  0  0  0  0  0  0  0  0999 V2000
  129.6490  128.6890  125.3330 C   0  0  0  0  0  0  0  0  0  0  0  0
  129.2880  128.5130  126.7030 O   0  0  0  0  0  0  0  0  0  0  0  0
  130.2470  127.9150  127.4520 C   0  0  0  0  0  0  0  0  0  0  0  0
  131.1400  128.4890  128.0560 O   0  0  0  0  0  0  0  0  0  0  0  0
  130.0710  126.4370  127.4510 C   0  0  0  0  0  0  0  0  0  0  0  0
  128.9440  125.8130  128.0010 C   0  0  0  0  0  0  0  0  0  0  0  0
  128.8280  124.4220  127.9690 C   0  0  0  0  0  0  0  0  0  0  0  0
  129.8310  123.6470  127.3870 C   0  0  0  0  0  0  0  0  0  0  0  0
  130.9610  124.2540  126.8260 C   0  0  0  0  0  0  0  0  0  0  0  0
  132.0610  123.4190  126.2110 C   0  0  0  0  0  0  0  0  0  0  0  0
  133.4440  124.0630  126.4190 C   0  0  0  0  0  0  0  0  0  0  0  0
  134.5660  123.5090  125.6380 N   0  0  0  0  0  0  0  0  0  0  0  0
  135.3320  122.5260  126.4010 C   0  0  0  0  0  0  0  0  0  0  0  0
  134.1730  122.9550  124.3310 C   0  0  0  0  0  0  0  0  0  0  0  0
  134.1710  123.9740  123.2120 C   0  0  0  0  0  0  0  0  0  0  0  0
  135.3760  124.3750  122.6150 C   0  0  0  0  0  0  0  0  0  0  0  0
  135.3790  125.3230  121.5900 C   0  0  0  0  0  0  0  0  0  0  0  0
  134.1790  125.8790  121.1520 C   0  0  0  0  0  0  0  0  0  0  0  0
  132.9750  125.4890  121.7360 C   0  0  0  0  0  0  0  0  0  0  0  0
  132.9700  124.5390  122.7580 C   0  0  0  0  0  0  0  0  0  0  0  0
  131.0760  125.6520  126.8680 C   0  0  0  0  0  0  0  0  0  0  0  0
  130.6363  129.1703  125.2729 H   0  0  0  0  0  0  0  0  0  0  0  0
  129.6880  127.7088  124.8353 H   0  0  0  0  0  0  0  0  0  0  0  0
  128.9009  129.3235  124.8353 H   0  0  0  0  0  0  0  0  0  0  0  0
  128.1490  126.4199  128.4589 H   0  0  0  0  0  0  0  0  0  0  0  0
  127.9426  123.9356  128.4043 H   0  0  0  0  0  0  0  0  0  0  0  0
  129.7335  122.5515  127.3687 H   0  0  0  0  0  0  0  0  0  0  0  0
  132.0569  122.4231  126.6780 H   0  0  0  0  0  0  0  0  0  0  0  0
  131.8742  123.3460  125.1294 H   0  0  0  0  0  0  0  0  0  0  0  0
  133.3555  125.1289  126.1621 H   0  0  0  0  0  0  0  0  0  0  0  0
  133.6990  123.8582  127.4693 H   0  0  0  0  0  0  0  0  0  0  0  0
  135.1914  122.7065  127.4769 H   0  0  0  0  0  0  0  0  0  0  0  0
  134.9822  121.5137  126.1502 H   0  0  0  0  0  0  0  0  0  0  0  0
  136.3991  122.6178  126.1502 H   0  0  0  0  0  0  0  0  0  0  0  0
  134.8780  122.1525  124.0682 H   0  0  0  0  0  0  0  0  0  0  0  0
  133.1403  122.5905  124.4346 H   0  0  0  0  0  0  0  0  0  0  0  0
  136.3260  123.9389  122.9574 H   0  0  0  0  0  0  0  0  0  0  0  0
  136.3288  125.6309  121.1283 H   0  0  0  0  0  0  0  0  0  0  0  0
  134.1817  126.6262  120.3448 H   0  0  0  0  0  0  0  0  0  0  0  0
  132.0283  125.9303  121.3910 H   0  0  0  0  0  0  0  0  0  0  0  0
  132.0164  124.2306  123.2114 H   0  0  0  0  0  0  0  0  0  0  0  0
  131.9648  126.1376  126.4386 H   0  0  0  0  0  0  0  0  0  0  0  0
  1  2  1  0
  2  3  1  0
  3  4  2  0
  3  5  1  0
  5  6  1  0
  6  7  2  0
  7  8  1  0
  8  9  2  0
  9 10  1  0
 10 11  1  0
 11 12  1  0
 12 13  1  0
 12 14  1  0
 14 15  1  0
 15 16  2  0
 16 17  1  0
 17 18  2  0
 18 19  1  0
 19 20  2  0
  9 21  1  0
 21  5  2  0
 20 15  1  0
  1 22  1  0
  1 23  1  0
  1 24  1  0
  6 25  1  0
  7 26  1  0
  8 27  1  0
 10 28  1  0
 10 29  1  0
 11 30  1  0
 11 31  1  0
 13 32  1  0
 13 33  1  0
 13 34  1  0
 14 35  1  0
 14 36  1  0
 16 37  1  0
 17 38  1  0
 18 39  1  0
 19 40  1  0
 20 41  1  0
 21 42  1  0
M  END
>  <meeko>  (17) 
{"is_sidechain": [false], "free_energy": -7.365, "intermolecular_energy": -10.249, "internal_energy": -0.82}

$$$$
seed-5301
     RDKit          3D

 42 43  0  0  0  0  0  0  0  0999 V2000
  136.4820  122.9440  123.6650 C   0  0  0  0  0  0  0  0  0  0  0  0
  136.5860  123.9230  124.6990 O   0  0  0  0  0  0  0  0  0  0  0  0
  136.6420  125.1990  124.2440 C   0  0  0  0  0  0  0  0  0  0  0  0
  137.4600  126.0410  124.5820 O   0  0  0  0  0  0  0  0  0  0  0  0
  135.5590  125.4540  123.2550 C   0  0  0  0  0  0  0  0  0  0  0  0
  135.8200  125.7180  121.9040 C   0  0  0  0  0  0  0  0  0  0  0  0
  134.7660  125.9460  121.0180 C   0  0  0  0  0  0  0  0  0  0  0  0
  133.4460  125.9090  121.4720 C   0  0  0  0  0  0  0  0  0  0  0  0
  133.1670  125.6410  122.8180 C   0  0  0  0  0  0  0  0  0  0  0  0
  131.7410  125.6190  123.3210 C   0  0  0  0  0  0  0  0  0  0  0  0
  131.6170  126.2990  124.6970 C   0  0  0  0  0  0  0  0  0  0  0  0
  131.4250  125.4170  125.8650 N   0  0  0  0  0  0  0  0  0  0  0  0
  130.2910  125.8340  126.6860 C   0  0  0  0  0  0  0  0  0  0  0  0
  131.3200  123.9880  125.5270 C   0  0  0  0  0  0  0  0  0  0  0  0
  132.5130  123.1660  125.9670 C   0  0  0  0  0  0  0  0  0  0  0  0
  133.5630  123.7650  126.6780 C   0  0  0  0  0  0  0  0  0  0  0  0
  134.6700  123.0140  127.0760 C   0  0  0  0  0  0  0  0  0  0  0  0
  134.7390  121.6570  126.7650 C   0  0  0  0  0  0  0  0  0  0  0  0
  133.7020  121.0490  126.0590 C   0  0  0  0  0  0  0  0  0  0  0  0
  132.5930  121.7980  125.6650 C   0  0  0  0  0  0  0  0  0  0  0  0
  134.2310  125.4200  123.7050 C   0  0  0  0  0  0  0  0  0  0  0  0
  136.3759  121.9457  124.1146 H   0  0  0  0  0  0  0  0  0  0  0  0
  135.6018  123.1609  123.0419 H   0  0  0  0  0  0  0  0  0  0  0  0
  137.3881  122.9711  123.0419 H   0  0  0  0  0  0  0  0  0  0  0  0
  136.8580  125.7456  121.5408 H   0  0  0  0  0  0  0  0  0  0  0  0
  134.9758  126.1555  119.9587 H   0  0  0  0  0  0  0  0  0  0  0  0
  132.6204  126.0914  120.7683 H   0  0  0  0  0  0  0  0  0  0  0  0
  131.1000  126.1492  122.6013 H   0  0  0  0  0  0  0  0  0  0  0  0
  131.4282  124.5696  123.4254 H   0  0  0  0  0  0  0  0  0  0  0  0
  132.5374  126.8774  124.8656 H   0  0  0  0  0  0  0  0  0  0  0  0
  130.6969  126.8990  124.6375 H   0  0  0  0  0  0  0  0  0  0  0  0
  130.5534  125.7375  127.7499 H   0  0  0  0  0  0  0  0  0  0  0  0
  130.0428  126.8822  126.4632 H   0  0  0  0  0  0  0  0  0  0  0  0
  129.4229  125.1963  126.4632 H   0  0  0  0  0  0  0  0  0  0  0  0
  130.4208  123.5819  126.0134 H   0  0  0  0  0  0  0  0  0  0  0  0
  131.2724  123.9212  124.4301 H   0  0  0  0  0  0  0  0  0  0  0  0
  133.5137  124.8360  126.9241 H   0  0  0  0  0  0  0  0  0  0  0  0
  135.4876  123.4927  127.6348 H   0  0  0  0  0  0  0  0  0  0  0  0
  135.6124  121.0654  127.0769 H   0  0  0  0  0  0  0  0  0  0  0  0
  133.7582  119.9784  125.8125 H   0  0  0  0  0  0  0  0  0  0  0  0
  131.7747  121.3123  125.1132 H   0  0  0  0  0  0  0  0  0  0  0  0
  134.0214  125.2177  124.7657 H   0  0  0  0  0  0  0  0  0  0  0  0
  1  2  1  0
  2  3  1  0
  3  4  2  0
  3  5  1  0
  5  6  1  0
  6  7  2  0
  7  8  1  0
  8  9  2  0
  9 10  1  0
 10 11  1  0
 11 12  1  0
 12 13  1  0
 12 14  1  0
 14 15  1  0
 15 16  2  0
 16 17  1  0
 17 18  2  0
 18 19  1  0
 19 20  2  0
  9 21  1  0
 21  5  2  0
 20 15  1  0
  1 22  1  0
  1 23  1  0
  1 24  1  0
  6 25  1  0
  7 26  1  0
  8 27  1  0
 10 28  1  0
 10 29  1  0
 11 30  1  0
 11 31  1  0
 13 32  1  0
 13 33  1  0
 13 34  1  0
 14 35  1  0
 14 36  1  0
 16 37  1  0
 17 38  1  0
 18 39  1  0
 19 40  1  0
 20 41  1  0
 21 42  1  0
M  END
>  <meeko>  (18) 
{"is_sidechain": [false], "free_energy": -7.32, "intermolecular_energy": -10.148, "internal_energy": -0.857}

$$$$
seed-5301
     RDKit          3D

 42 43  0  0  0  0  0  0  0  0999 V2000
  132.1300  128.8660  129.1660 C   0  0  0  0  0  0  0  0  0  0  0  0
  131.0210  128.9670  128.2740 O   0  0  0  0  0  0  0  0  0  0  0  0
  130.4060  127.7840  128.0240 C   0  0  0  0  0  0  0  0  0  0  0  0
  129.8900  127.0590  128.8600 O   0  0  0  0  0  0  0  0  0  0  0  0
  130.4360  127.4720  126.5680 C   0  0  0  0  0  0  0  0  0  0  0  0
  129.6150  128.1270  125.6420 C   0  0  0  0  0  0  0  0  0  0  0  0
  129.6860  127.7980  124.2870 C   0  0  0  0  0  0  0  0  0  0  0  0
  130.5780  126.8190  123.8480 C   0  0  0  0  0  0  0  0  0  0  0  0
  131.4110  126.1590  124.7590 C   0  0  0  0  0  0  0  0  0  0  0  0
  132.3660  125.0830  124.2940 C   0  0  0  0  0  0  0  0  0  0  0  0
  133.4450  125.6520  123.3550 C   0  0  0  0  0  0  0  0  0  0  0  0
  134.4900  124.7190  122.8930 N   0  0  0  0  0  0  0  0  0  0  0  0
  134.9620  125.0460  121.5490 C   0  0  0  0  0  0  0  0  0  0  0  0
  135.6260  124.5830  123.8200 C   0  0  0  0  0  0  0  0  0  0  0  0
  135.4460  123.4910  124.8520 C   0  0  0  0  0  0  0  0  0  0  0  0
  135.3210  123.8130  126.2120 C   0  0  0  0  0  0  0  0  0  0  0  0
  135.1660  122.8080  127.1680 C   0  0  0  0  0  0  0  0  0  0  0  0
  135.1340  121.4710  126.7740 C   0  0  0  0  0  0  0  0  0  0  0  0
  135.2550  121.1380  125.4260 C   0  0  0  0  0  0  0  0  0  0  0  0
  135.4070  122.1410  124.4690 C   0  0  0  0  0  0  0  0  0  0  0  0
  131.3290  126.4880  126.1210 C   0  0  0  0  0  0  0  0  0  0  0  0
  131.7693  128.8988  130.2047 H   0  0  0  0  0  0  0  0  0  0  0  0
  132.6564  127.9162  128.9905 H   0  0  0  0  0  0  0  0  0  0  0  0
  132.8193  129.7051  128.9905 H   0  0  0  0  0  0  0  0  0  0  0  0
  128.9128  128.9022  125.9827 H   0  0  0  0  0  0  0  0  0  0  0  0
  129.0366  128.3122  123.5632 H   0  0  0  0  0  0  0  0  0  0  0  0
  130.6270  126.5642  122.7790 H   0  0  0  0  0  0  0  0  0  0  0  0
  132.8558  124.6364  125.1719 H   0  0  0  0  0  0  0  0  0  0  0  0
  131.7902  124.3274  123.7394 H   0  0  0  0  0  0  0  0  0  0  0  0
  132.9349  126.0467  122.4639 H   0  0  0  0  0  0  0  0  0  0  0  0
  133.9783  126.4040  123.9550 H   0  0  0  0  0  0  0  0  0  0  0  0
  135.8644  125.6711  121.6193 H   0  0  0  0  0  0  0  0  0  0  0  0
  135.1999  124.1182  121.0081 H   0  0  0  0  0  0  0  0  0  0  0  0
  134.1770  125.5948  121.0081 H   0  0  0  0  0  0  0  0  0  0  0  0
  136.5283  124.3590  123.2320 H   0  0  0  0  0  0  0  0  0  0  0  0
  135.7060  125.5325  124.3695 H   0  0  0  0  0  0  0  0  0  0  0  0
  135.3454  124.8665  126.5274 H   0  0  0  0  0  0  0  0  0  0  0  0
  135.0691  123.0707  128.2318 H   0  0  0  0  0  0  0  0  0  0  0  0
  135.0132  120.6786  127.5273 H   0  0  0  0  0  0  0  0  0  0  0  0
  135.2306  120.0827  125.1166 H   0  0  0  0  0  0  0  0  0  0  0  0
  135.4970  121.8723  123.4061 H   0  0  0  0  0  0  0  0  0  0  0  0
  131.9726  125.9680  126.8458 H   0  0  0  0  0  0  0  0  0  0  0  0
  1  2  1  0
  2  3  1  0
  3  4  2  0
  3  5  1  0
  5  6  1  0
  6  7  2  0
  7  8  1  0
  8  9  2  0
  9 10  1  0
 10 11  1  0
 11 12  1  0
 12 13  1  0
 12 14  1  0
 14 15  1  0
 15 16  2  0
 16 17  1  0
 17 18  2  0
 18 19  1  0
 19 20  2  0
  9 21  1  0
 21  5  2  0
 20 15  1  0
  1 22  1  0
  1 23  1  0
  1 24  1  0
  6 25  1  0
  7 26  1  0
  8 27  1  0
 10 28  1  0
 10 29  1  0
 11 30  1  0
 11 31  1  0
 13 32  1  0
 13 33  1  0
 13 34  1  0
 14 35  1  0
 14 36  1  0
 16 37  1  0
 17 38  1  0
 18 39  1  0
 19 40  1  0
 20 41  1  0
 21 42  1  0
M  END
>  <meeko>  (19) 
{"is_sidechain": [false], "free_energy": -7.239, "intermolecular_energy": -10.159, "internal_energy": -0.731}

$$$$
seed-5301
     RDKit          3D

 42 43  0  0  0  0  0  0  0  0999 V2000
  127.7170  125.2310  129.3210 C   0  0  0  0  0  0  0  0  0  0  0  0
  127.8220  126.3950  128.5010 O   0  0  0  0  0  0  0  0  0  0  0  0
  129.0590  126.9500  128.4880 C   0  0  0  0  0  0  0  0  0  0  0  0
  129.7750  127.1170  129.4630 O   0  0  0  0  0  0  0  0  0  0  0  0
  129.4490  127.3370  127.1040 C   0  0  0  0  0  0  0  0  0  0  0  0
  129.0320  128.5370  126.5130 C   0  0  0  0  0  0  0  0  0  0  0  0
  129.4300  128.8520  125.2130 C   0  0  0  0  0  0  0  0  0  0  0  0
  130.2480  127.9760  124.4970 C   0  0  0  0  0  0  0  0  0  0  0  0
  130.6790  126.7760  125.0740 C   0  0  0  0  0  0  0  0  0  0  0  0
  131.5480  125.8140  124.2980 C   0  0  0  0  0  0  0  0  0  0  0  0
  133.0210  125.8990  124.7400 C   0  0  0  0  0  0  0  0  0  0  0  0
  133.8160  124.6590  124.6620 N   0  0  0  0  0  0  0  0  0  0  0  0
  133.8830  123.9690  125.9490 C   0  0  0  0  0  0  0  0  0  0  0  0
  133.3850  123.7330  123.6020 C   0  0  0  0  0  0  0  0  0  0  0  0
  134.1650  123.8750  122.3120 C   0  0  0  0  0  0  0  0  0  0  0  0
  135.2630  123.0400  122.0520 C   0  0  0  0  0  0  0  0  0  0  0  0
  135.9920  123.1750  120.8690 C   0  0  0  0  0  0  0  0  0  0  0  0
  135.6310  124.1450  119.9350 C   0  0  0  0  0  0  0  0  0  0  0  0
  134.5420  124.9790  120.1810 C   0  0  0  0  0  0  0  0  0  0  0  0
  133.8110  124.8430  121.3610 C   0  0  0  0  0  0  0  0  0  0  0  0
  130.2690  126.4610  126.3790 C   0  0  0  0  0  0  0  0  0  0  0  0
  127.7436  125.5253  130.3806 H   0  0  0  0  0  0  0  0  0  0  0  0
  126.7688  124.7161  129.1071 H   0  0  0  0  0  0  0  0  0  0  0  0
  128.5578  124.5547  129.1071 H   0  0  0  0  0  0  0  0  0  0  0  0
  128.3900  129.2318  127.0744 H   0  0  0  0  0  0  0  0  0  0  0  0
  129.0981  129.7935  124.7510 H   0  0  0  0  0  0  0  0  0  0  0  0
  130.5559  128.2308  123.4722 H   0  0  0  0  0  0  0  0  0  0  0  0
  131.1837  124.7896  124.4646 H   0  0  0  0  0  0  0  0  0  0  0  0
  131.4921  126.0819  123.2326 H   0  0  0  0  0  0  0  0  0  0  0  0
  133.5148  126.6503  124.1062 H   0  0  0  0  0  0  0  0  0  0  0  0
  132.9841  126.1479  125.8108 H   0  0  0  0  0  0  0  0  0  0  0  0
  133.8116  124.7047  126.7636 H   0  0  0  0  0  0  0  0  0  0  0  0
  133.0500  123.2547  126.0259 H   0  0  0  0  0  0  0  0  0  0  0  0
  134.8379  123.4283  126.0259 H   0  0  0  0  0  0  0  0  0  0  0  0
  133.5076  122.7036  123.9698 H   0  0  0  0  0  0  0  0  0  0  0  0
  132.3372  123.9757  123.3712 H   0  0  0  0  0  0  0  0  0  0  0  0
  135.5513  122.2732  122.7861 H   0  0  0  0  0  0  0  0  0  0  0  0
  136.8510  122.5162  120.6739 H   0  0  0  0  0  0  0  0  0  0  0  0
  136.2060  124.2521  119.0034 H   0  0  0  0  0  0  0  0  0  0  0  0
  134.2588  125.7450  119.4441 H   0  0  0  0  0  0  0  0  0  0  0  0
  132.9493  125.5008  121.5474 H   0  0  0  0  0  0  0  0  0  0  0  0
  130.5948  125.5160  126.8381 H   0  0  0  0  0  0  0  0  0  0  0  0
  1  2  1  0
  2  3  1  0
  3  4  2  0
  3  5  1  0
  5  6  1  0
  6  7  2  0
  7  8  1  0
  8  9  2  0
  9 10  1  0
 10 11  1  0
 11 12  1  0
 12 13  1  0
 12 14  1  0
 14 15  1  0
 15 16  2  0
 16 17  1  0
 17 18  2  0
 18 19  1  0
 19 20  2  0
  9 21  1  0
 21  5  2  0
 20 15  1  0
  1 22  1  0
  1 23  1  0
  1 24  1  0
  6 25  1  0
  7 26  1  0
  8 27  1  0
 10 28  1  0
 10 29  1  0
 11 30  1  0
 11 31  1  0
 13 32  1  0
 13 33  1  0
 13 34  1  0
 14 35  1  0
 14 36  1  0
 16 37  1  0
 17 38  1  0
 18 39  1  0
 19 40  1  0
 20 41  1  0
 21 42  1  0
M  END
>  <meeko>  (20) 
{"is_sidechain": [false], "free_energy": -7.09, "intermolecular_energy": -10.111, "internal_energy": -0.57}

$$$$
