seed-2301
     RDKit          3D

 44 47  0  0  0  0  0  0  0  0999 V2000
  133.1230  120.6740  126.7000 F   0  0  0  0  0  0  0  0  0  0  0  0
  133.8580  121.6330  126.1200 C   0  0  0  0  0  0  0  0  0  0  0  0
  134.8720  121.2780  125.2390 C   0  0  0  0  0  0  0  0  0  0  0  0
  135.6410  122.2740  124.6350 C   0  0  0  0  0  0  0  0  0  0  0  0
  135.3950  123.6300  124.9080 C   0  0  0  0  0  0  0  0  0  0  0  0
  136.2250  124.7420  124.2750 C   0  0  2  0  0  0  0  0  0  0  0  0
  137.2300  125.3590  125.2740 C   0  0  0  0  0  0  0  0  0  0  0  0
  136.8470  126.7780  125.6830 C   0  0  0  0  0  0  0  0  0  0  0  0
  136.7470  127.6790  124.5380 N   0  0  0  0  0  0  0  0  0  0  0  0
  136.1650  127.0760  123.3380 C   0  0  0  0  0  0  0  0  0  0  0  0
  135.3250  125.8210  123.6160 C   0  0  1  0  0  0  0  0  0  0  0  0
  134.6540  125.3130  122.3260 C   0  0  0  0  0  0  0  0  0  0  0  0
  135.6070  125.2800  121.2630 O   0  0  0  0  0  0  0  0  0  0  0  0
  135.2990  124.5160  120.1700 C   0  0  0  0  0  0  0  0  0  0  0  0
  134.5860  125.2040  119.1660 C   0  0  0  0  0  0  0  0  0  0  0  0
  134.1970  124.5620  117.9860 C   0  0  0  0  0  0  0  0  0  0  0  0
  134.5370  123.2350  117.8430 C   0  0  0  0  0  0  0  0  0  0  0  0
  135.2310  122.5600  118.8190 C   0  0  0  0  0  0  0  0  0  0  0  0
  135.6270  123.1700  119.9940 C   0  0  0  0  0  0  0  0  0  0  0  0
  135.4650  121.2630  118.4840 O   0  0  0  0  0  0  0  0  0  0  0  0
  134.8390  121.2010  117.1840 C   0  0  0  0  0  0  0  0  0  0  0  0
  134.2490  122.4500  116.7730 O   0  0  0  0  0  0  0  0  0  0  0  0
  134.3650  123.9630  125.8050 C   0  0  0  0  0  0  0  0  0  0  0  0
  133.5980  122.9650  126.4090 C   0  0  0  0  0  0  0  0  0  0  0  0
  135.0676  120.2182  125.0188 H   0  0  0  0  0  0  0  0  0  0  0  0
  136.4463  121.9949  123.9395 H   0  0  0  0  0  0  0  0  0  0  0  0
  136.8215  124.2820  123.4734 H   0  0  0  0  0  0  0  0  0  0  0  0
  137.2645  124.7289  126.1750 H   0  0  0  0  0  0  0  0  0  0  0  0
  138.2103  125.4063  124.7773 H   0  0  0  0  0  0  0  0  0  0  0  0
  135.8738  126.7477  126.1949 H   0  0  0  0  0  0  0  0  0  0  0  0
  137.6380  127.1618  126.3440 H   0  0  0  0  0  0  0  0  0  0  0  0
  136.2260  128.5160  124.8050 H   0  0  0  0  0  0  0  0  0  0  0  0
  135.5203  127.8236  122.8528 H   0  0  0  0  0  0  0  0  0  0  0  0
  137.0041  126.7630  122.6993 H   0  0  0  0  0  0  0  0  0  0  0  0
  134.5115  126.0655  124.3149 H   0  0  0  0  0  0  0  0  0  0  0  0
  134.2602  124.2998  122.4943 H   0  0  0  0  0  0  0  0  0  0  0  0
  133.8317  125.9912  122.0542 H   0  0  0  0  0  0  0  0  0  0  0  0
  134.3315  126.2639  119.3137 H   0  0  0  0  0  0  0  0  0  0  0  0
  133.6407  125.0965  117.2019 H   0  0  0  0  0  0  0  0  0  0  0  0
  136.1817  122.6143  120.7644 H   0  0  0  0  0  0  0  0  0  0  0  0
  135.6004  120.9147  116.4436 H   0  0  0  0  0  0  0  0  0  0  0  0
  134.0255  120.4636  117.2500 H   0  0  0  0  0  0  0  0  0  0  0  0
  134.1615  125.0197  126.0331 H   0  0  0  0  0  0  0  0  0  0  0  0
  132.7930  123.2328  127.1092 H   0  0  0  0  0  0  0  0  0  0  0  0
  1  2  1  0
  2  3  1  0
  3  4  2  0
  4  5  1  0
  5  6  1  0
  6  7  1  0
  7  8  1  0
  8  9  1  0
  9 10  1  0
 10 11  1  0
 11 12  1  0
 12 13  1  0
 13 14  1  0
 14 15  1  0
 15 16  2  0
 16 17  1  0
 17 18  2  0
 18 19  1  0
 18 20  1  0
 20 21  1  0
 21 22  1  0
  5 23  2  0
 23 24  1  0
 24  2  2  0
 11  6  1  0
 19 14  2  0
 22 17  1  0
  3 25  1  0
  4 26  1  0
  6 27  1  6
  7 28  1  0
  7 29  1  0
  8 30  1  0
  8 31  1  0
  9 32  1  0
 10 33  1  0
 10 34  1  0
 11 35  1  1
 12 36  1  0
 12 37  1  0
 15 38  1  0
 16 39  1  0
 19 40  1  0
 21 41  1  0
 21 42  1  0
 23 43  1  0
 24 44  1  0
M  END
>  <meeko>  (1) 
{"is_sidechain": [false], "free_energy": -10.409, "intermolecular_energy": -12.844, "internal_energy": -0.881}

$$$$
seed-2301
     RDKit          3D

 44 47  0  0  0  0  0  0  0  0999 V2000
  133.8010  120.7840  127.2090 F   0  0  0  0  0  0  0  0  0  0  0  0
  134.3710  121.7390  126.4620 C   0  0  0  0  0  0  0  0  0  0  0  0
  135.0290  121.3890  125.2900 C   0  0  0  0  0  0  0  0  0  0  0  0
  135.6270  122.3820  124.5110 C   0  0  0  0  0  0  0  0  0  0  0  0
  135.5650  123.7290  124.9010 C   0  0  0  0  0  0  0  0  0  0  0  0
  136.2180  124.8370  124.0810 C   0  0  2  0  0  0  0  0  0  0  0  0
  137.2560  125.6340  124.9010 C   0  0  0  0  0  0  0  0  0  0  0  0
  136.7840  127.0510  125.2150 C   0  0  0  0  0  0  0  0  0  0  0  0
  136.4840  127.8190  124.0100 N   0  0  0  0  0  0  0  0  0  0  0  0
  135.8440  127.0490  122.9420 C   0  0  0  0  0  0  0  0  0  0  0  0
  135.1580  125.7630  123.4260 C   0  0  1  0  0  0  0  0  0  0  0  0
  134.4120  125.0710  122.2700 C   0  0  0  0  0  0  0  0  0  0  0  0
  133.0200  125.3800  122.3360 O   0  0  0  0  0  0  0  0  0  0  0  0
  132.3310  124.9370  123.4320 C   0  0  0  0  0  0  0  0  0  0  0  0
  132.1890  123.5350  123.4980 C   0  0  0  0  0  0  0  0  0  0  0  0
  131.5110  122.9260  124.5580 C   0  0  0  0  0  0  0  0  0  0  0  0
  130.9880  123.7460  125.5330 C   0  0  0  0  0  0  0  0  0  0  0  0
  131.1230  125.1130  125.4730 C   0  0  0  0  0  0  0  0  0  0  0  0
  131.7880  125.7410  124.4370 C   0  0  0  0  0  0  0  0  0  0  0  0
  130.5370  125.7370  126.5300 O   0  0  0  0  0  0  0  0  0  0  0  0
  130.0190  124.6060  127.2610 C   0  0  0  0  0  0  0  0  0  0  0  0
  130.3020  123.3390  126.6330 O   0  0  0  0  0  0  0  0  0  0  0  0
  134.8960  124.0580  126.0940 C   0  0  0  0  0  0  0  0  0  0  0  0
  134.3000  123.0640  126.8720 C   0  0  0  0  0  0  0  0  0  0  0  0
  135.0789  120.3356  124.9771 H   0  0  0  0  0  0  0  0  0  0  0  0
  136.1510  122.1062  123.5840 H   0  0  0  0  0  0  0  0  0  0  0  0
  136.7717  124.3497  123.2649 H   0  0  0  0  0  0  0  0  0  0  0  0
  137.4403  125.1049  125.8476 H   0  0  0  0  0  0  0  0  0  0  0  0
  138.1727  125.7113  124.2980 H   0  0  0  0  0  0  0  0  0  0  0  0
  135.8748  126.9918  125.8313 H   0  0  0  0  0  0  0  0  0  0  0  0
  137.5987  127.5654  125.7456 H   0  0  0  0  0  0  0  0  0  0  0  0
  135.9170  128.6310  124.2530 H   0  0  0  0  0  0  0  0  0  0  0  0
  135.0863  127.6860  122.4623 H   0  0  0  0  0  0  0  0  0  0  0  0
  136.6407  126.7436  122.2477 H   0  0  0  0  0  0  0  0  0  0  0  0
  134.3991  126.0083  124.1835 H   0  0  0  0  0  0  0  0  0  0  0  0
  134.8187  125.4234  121.3107 H   0  0  0  0  0  0  0  0  0  0  0  0
  134.5456  123.9823  122.3531 H   0  0  0  0  0  0  0  0  0  0  0  0
  132.6193  122.9101  122.7015 H   0  0  0  0  0  0  0  0  0  0  0  0
  131.3994  121.8330  124.6113 H   0  0  0  0  0  0  0  0  0  0  0  0
  131.8863  126.8361  124.4049 H   0  0  0  0  0  0  0  0  0  0  0  0
  130.4675  124.6051  128.2654 H   0  0  0  0  0  0  0  0  0  0  0  0
  128.9249  124.7145  127.2940 H   0  0  0  0  0  0  0  0  0  0  0  0
  134.8420  125.1082  126.4167 H   0  0  0  0  0  0  0  0  0  0  0  0
  133.7778  123.3283  127.8033 H   0  0  0  0  0  0  0  0  0  0  0  0
  1  2  1  0
  2  3  1  0
  3  4  2  0
  4  5  1  0
  5  6  1  0
  6  7  1  0
  7  8  1  0
  8  9  1  0
  9 10  1  0
 10 11  1  0
 11 12  1  0
 12 13  1  0
 13 14  1  0
 14 15  1  0
 15 16  2  0
 16 17  1  0
 17 18  2  0
 18 19  1  0
 18 20  1  0
 20 21  1  0
 21 22  1  0
  5 23  2  0
 23 24  1  0
 24  2  2  0
 11  6  1  0
 19 14  2  0
 22 17  1  0
  3 25  1  0
  4 26  1  0
  6 27  1  6
  7 28  1  0
  7 29  1  0
  8 30  1  0
  8 31  1  0
  9 32  1  0
 10 33  1  0
 10 34  1  0
 11 35  1  1
 12 36  1  0
 12 37  1  0
 15 38  1  0
 16 39  1  0
 19 40  1  0
 21 41  1  0
 21 42  1  0
 23 43  1  0
 24 44  1  0
M  END
>  <meeko>  (2) 
{"is_sidechain": [false], "free_energy": -10.022, "intermolecular_energy": -11.213, "internal_energy": -2.034}

$$$$
seed-2301
     RDKit          3D

 44 47  0  0  0  0  0  0  0  0999 V2000
  136.9480  120.1050  126.4340 F   0  0  0  0  0  0  0  0  0  0  0  0
  136.0230  121.0740  126.4080 C   0  0  0  0  0  0  0  0  0  0  0  0
  135.1470  121.1540  125.3330 C   0  0  0  0  0  0  0  0  0  0  0  0
  134.1830  122.1640  125.3020 C   0  0  0  0  0  0  0  0  0  0  0  0
  134.0910  123.0950  126.3500 C   0  0  0  0  0  0  0  0  0  0  0  0
  133.0590  124.2180  126.3410 C   0  0  2  0  0  0  0  0  0  0  0  0
  131.6460  123.7120  126.7040 C   0  0  0  0  0  0  0  0  0  0  0  0
  130.6980  123.7240  125.5090 C   0  0  0  0  0  0  0  0  0  0  0  0
  130.5580  125.0550  124.9220 N   0  0  0  0  0  0  0  0  0  0  0  0
  131.7940  125.8390  124.8910 C   0  0  0  0  0  0  0  0  0  0  0  0
  133.0710  124.9930  124.9960 C   0  0  1  0  0  0  0  0  0  0  0  0
  134.3260  125.8730  124.8400 C   0  0  0  0  0  0  0  0  0  0  0  0
  135.3190  125.1750  124.0880 O   0  0  0  0  0  0  0  0  0  0  0  0
  135.1300  125.0820  122.7360 C   0  0  0  0  0  0  0  0  0  0  0  0
  134.5490  126.2270  122.1540 C   0  0  0  0  0  0  0  0  0  0  0  0
  134.2920  126.2890  120.7800 C   0  0  0  0  0  0  0  0  0  0  0  0
  134.6270  125.1900  120.0210 C   0  0  0  0  0  0  0  0  0  0  0  0
  135.1920  124.0710  120.5850 C   0  0  0  0  0  0  0  0  0  0  0  0
  135.4560  123.9830  121.9380 C   0  0  0  0  0  0  0  0  0  0  0  0
  135.4450  123.1000  119.6650 O   0  0  0  0  0  0  0  0  0  0  0  0
  134.9750  123.7390  118.4590 C   0  0  0  0  0  0  0  0  0  0  0  0
  134.4540  125.0650  118.6790 O   0  0  0  0  0  0  0  0  0  0  0  0
  134.9920  122.9940  127.4250 C   0  0  0  0  0  0  0  0  0  0  0  0
  135.9550  121.9840  127.4540 C   0  0  0  0  0  0  0  0  0  0  0  0
  135.2122  120.4261  124.5109 H   0  0  0  0  0  0  0  0  0  0  0  0
  133.4902  122.2311  124.4502 H   0  0  0  0  0  0  0  0  0  0  0  0
  133.3495  124.9290  127.1285 H   0  0  0  0  0  0  0  0  0  0  0  0
  131.7260  122.6817  127.0809 H   0  0  0  0  0  0  0  0  0  0  0  0
  131.2331  124.3896  127.4658 H   0  0  0  0  0  0  0  0  0  0  0  0
  131.0880  123.0389  124.7419 H   0  0  0  0  0  0  0  0  0  0  0  0
  129.7061  123.4084  125.8647 H   0  0  0  0  0  0  0  0  0  0  0  0
  130.1610  124.9760  123.9860 H   0  0  0  0  0  0  0  0  0  0  0  0
  131.8258  126.3979  123.9441 H   0  0  0  0  0  0  0  0  0  0  0  0
  131.7753  126.4989  125.7709 H   0  0  0  0  0  0  0  0  0  0  0  0
  133.1003  124.2601  124.1762 H   0  0  0  0  0  0  0  0  0  0  0  0
  134.0572  126.8018  124.3154 H   0  0  0  0  0  0  0  0  0  0  0  0
  134.7273  126.1111  125.8361 H   0  0  0  0  0  0  0  0  0  0  0  0
  134.2933  127.0865  122.7910 H   0  0  0  0  0  0  0  0  0  0  0  0
  133.8396  127.1817  120.3235 H   0  0  0  0  0  0  0  0  0  0  0  0
  135.9074  123.0786  122.3720 H   0  0  0  0  0  0  0  0  0  0  0  0
  135.8140  123.8071  117.7509 H   0  0  0  0  0  0  0  0  0  0  0  0
  134.1492  123.1266  118.0678 H   0  0  0  0  0  0  0  0  0  0  0  0
  134.9373  123.7181  128.2512 H   0  0  0  0  0  0  0  0  0  0  0  0
  136.6548  121.9097  128.2994 H   0  0  0  0  0  0  0  0  0  0  0  0
  1  2  1  0
  2  3  1  0
  3  4  2  0
  4  5  1  0
  5  6  1  0
  6  7  1  0
  7  8  1  0
  8  9  1  0
  9 10  1  0
 10 11  1  0
 11 12  1  0
 12 13  1  0
 13 14  1  0
 14 15  1  0
 15 16  2  0
 16 17  1  0
 17 18  2  0
 18 19  1  0
 18 20  1  0
 20 21  1  0
 21 22  1  0
  5 23  2  0
 23 24  1  0
 24  2  2  0
 11  6  1  0
 19 14  2  0
 22 17  1  0
  3 25  1  0
  4 26  1  0
  6 27  1  1
  7 28  1  0
  7 29  1  0
  8 30  1  0
  8 31  1  0
  9 32  1  0
 10 33  1  0
 10 34  1  0
 11 35  1  6
 12 36  1  0
 12 37  1  0
 15 38  1  0
 16 39  1  0
 19 40  1  0
 21 41  1  0
 21 42  1  0
 23 43  1  0
 24 44  1  0
M  END
>  <meeko>  (3) 
{"is_sidechain": [false], "free_energy": -9.667, "intermolecular_energy": -11.741, "internal_energy": -1.068}

$$$$
seed-2301
     RDKit          3D

 44 47  0  0  0  0  0  0  0  0999 V2000
  135.5070  120.4160  125.8610 F   0  0  0  0  0  0  0  0  0  0  0  0
  134.6070  121.3980  126.0120 C   0  0  0  0  0  0  0  0  0  0  0  0
  133.2920  121.1850  125.6200 C   0  0  0  0  0  0  0  0  0  0  0  0
  132.3520  122.2070  125.7740 C   0  0  0  0  0  0  0  0  0  0  0  0
  132.7260  123.4430  126.3250 C   0  0  0  0  0  0  0  0  0  0  0  0
  131.7280  124.5840  126.4960 C   0  0  2  0  0  0  0  0  0  0  0  0
  130.4480  124.1330  127.2330 C   0  0  0  0  0  0  0  0  0  0  0  0
  129.2320  124.0850  126.3120 C   0  0  0  0  0  0  0  0  0  0  0  0
  128.9550  125.3760  125.6890 N   0  0  0  0  0  0  0  0  0  0  0  0
  130.1470  126.1320  125.2970 C   0  0  0  0  0  0  0  0  0  0  0  0
  131.4070  125.2690  125.1400 C   0  0  1  0  0  0  0  0  0  0  0  0
  132.5860  126.1100  124.6170 C   0  0  0  0  0  0  0  0  0  0  0  0
  132.4940  126.2480  123.1990 O   0  0  0  0  0  0  0  0  0  0  0  0
  133.3290  125.4740  122.4400 C   0  0  0  0  0  0  0  0  0  0  0  0
  134.0670  124.5250  123.1760 C   0  0  0  0  0  0  0  0  0  0  0  0
  134.9640  123.6580  122.5440 C   0  0  0  0  0  0  0  0  0  0  0  0
  135.0980  123.7680  121.1780 C   0  0  0  0  0  0  0  0  0  0  0  0
  134.3820  124.6920  120.4560 C   0  0  0  0  0  0  0  0  0  0  0  0
  133.4900  125.5610  121.0550 C   0  0  0  0  0  0  0  0  0  0  0  0
  134.6610  124.6370  119.1260 O   0  0  0  0  0  0  0  0  0  0  0  0
  135.6340  123.5710  119.0950 C   0  0  0  0  0  0  0  0  0  0  0  0
  135.9160  123.0160  120.3950 O   0  0  0  0  0  0  0  0  0  0  0  0
  134.0640  123.6340  126.7120 C   0  0  0  0  0  0  0  0  0  0  0  0
  135.0020  122.6120  126.5560 C   0  0  0  0  0  0  0  0  0  0  0  0
  132.9923  120.2175  125.1909 H   0  0  0  0  0  0  0  0  0  0  0  0
  131.3105  122.0420  125.4610 H   0  0  0  0  0  0  0  0  0  0  0  0
  132.2085  125.3385  127.1362 H   0  0  0  0  0  0  0  0  0  0  0  0
  130.6155  123.1287  127.6494 H   0  0  0  0  0  0  0  0  0  0  0  0
  130.2402  124.8683  128.0244 H   0  0  0  0  0  0  0  0  0  0  0  0
  129.4169  123.3433  125.5210 H   0  0  0  0  0  0  0  0  0  0  0  0
  128.3587  123.8129  126.9230 H   0  0  0  0  0  0  0  0  0  0  0  0
  128.3370  125.2440  124.8870 H   0  0  0  0  0  0  0  0  0  0  0  0
  129.9433  126.6257  124.3354 H   0  0  0  0  0  0  0  0  0  0  0  0
  130.3502  126.8497  126.1054 H   0  0  0  0  0  0  0  0  0  0  0  0
  131.2283  124.4833  124.3911 H   0  0  0  0  0  0  0  0  0  0  0  0
  132.5583  127.1061  125.0828 H   0  0  0  0  0  0  0  0  0  0  0  0
  133.5304  125.6065  124.8710 H   0  0  0  0  0  0  0  0  0  0  0  0
  133.9351  124.4654  124.2664 H   0  0  0  0  0  0  0  0  0  0  0  0
  135.5406  122.9164  123.1163 H   0  0  0  0  0  0  0  0  0  0  0  0
  132.9262  126.2959  120.4617 H   0  0  0  0  0  0  0  0  0  0  0  0
  135.2508  122.7677  118.4485 H   0  0  0  0  0  0  0  0  0  0  0  0
  136.5729  123.9990  118.7138 H   0  0  0  0  0  0  0  0  0  0  0  0
  134.3746  124.5978  127.1417 H   0  0  0  0  0  0  0  0  0  0  0  0
  136.0470  122.7679  126.8622 H   0  0  0  0  0  0  0  0  0  0  0  0
  1  2  1  0
  2  3  1  0
  3  4  2  0
  4  5  1  0
  5  6  1  0
  6  7  1  0
  7  8  1  0
  8  9  1  0
  9 10  1  0
 10 11  1  0
 11 12  1  0
 12 13  1  0
 13 14  1  0
 14 15  1  0
 15 16  2  0
 16 17  1  0
 17 18  2  0
 18 19  1  0
 18 20  1  0
 20 21  1  0
 21 22  1  0
  5 23  2  0
 23 24  1  0
 24  2  2  0
 11  6  1  0
 19 14  2  0
 22 17  1  0
  3 25  1  0
  4 26  1  0
  6 27  1  1
  7 28  1  0
  7 29  1  0
  8 30  1  0
  8 31  1  0
  9 32  1  0
 10 33  1  0
 10 34  1  0
 11 35  1  6
 12 36  1  0
 12 37  1  0
 15 38  1  0
 16 39  1  0
 19 40  1  0
 21 41  1  0
 21 42  1  0
 23 43  1  0
 24 44  1  0
M  END
>  <meeko>  (4) 
{"is_sidechain": [false], "free_energy": -9.57, "intermolecular_energy": -11.382, "internal_energy": -1.307}

$$$$
seed-2301
     RDKit          3D

 44 47  0  0  0  0  0  0  0  0999 V2000
  135.5330  121.7750  128.2690 F   0  0  0  0  0  0  0  0  0  0  0  0
  135.3470  122.1150  126.9860 C   0  0  0  0  0  0  0  0  0  0  0  0
  135.0570  123.4340  126.6640 C   0  0  0  0  0  0  0  0  0  0  0  0
  134.8600  123.7910  125.3280 C   0  0  0  0  0  0  0  0  0  0  0  0
  134.9570  122.8280  124.3110 C   0  0  0  0  0  0  0  0  0  0  0  0
  134.7350  123.1820  122.8430 C   0  0  2  0  0  0  0  0  0  0  0  0
  136.0660  123.3840  122.0860 C   0  0  0  0  0  0  0  0  0  0  0  0
  136.3100  124.8440  121.7170 C   0  0  0  0  0  0  0  0  0  0  0  0
  135.2390  125.3970  120.8920 N   0  0  0  0  0  0  0  0  0  0  0  0
  133.8950  124.9430  121.2550 C   0  0  0  0  0  0  0  0  0  0  0  0
  133.7860  124.4000  122.6870 C   0  0  1  0  0  0  0  0  0  0  0  0
  132.3260  124.0520  123.0320 C   0  0  0  0  0  0  0  0  0  0  0  0
  131.5600  125.2490  123.1690 O   0  0  0  0  0  0  0  0  0  0  0  0
  131.1890  125.6130  124.4350 C   0  0  0  0  0  0  0  0  0  0  0  0
  131.2620  124.5710  125.3810 C   0  0  0  0  0  0  0  0  0  0  0  0
  130.9160  124.7830  126.7200 C   0  0  0  0  0  0  0  0  0  0  0  0
  130.5030  126.0470  127.0760 C   0  0  0  0  0  0  0  0  0  0  0  0
  130.4290  127.0670  126.1570 C   0  0  0  0  0  0  0  0  0  0  0  0
  130.7640  126.8840  124.8290 C   0  0  0  0  0  0  0  0  0  0  0  0
  129.9980  128.2320  126.7110 O   0  0  0  0  0  0  0  0  0  0  0  0
  129.8110  127.8280  128.0840 C   0  0  0  0  0  0  0  0  0  0  0  0
  130.1290  126.4420  128.3220 O   0  0  0  0  0  0  0  0  0  0  0  0
  135.2480  121.4990  124.6640 C   0  0  0  0  0  0  0  0  0  0  0  0
  135.4440  121.1440  125.9990 C   0  0  0  0  0  0  0  0  0  0  0  0
  134.9828  124.1934  127.4563 H   0  0  0  0  0  0  0  0  0  0  0  0
  134.6270  124.8348  125.0707 H   0  0  0  0  0  0  0  0  0  0  0  0
  134.2363  122.3203  122.3753 H   0  0  0  0  0  0  0  0  0  0  0  0
  136.8918  123.0385  122.7253 H   0  0  0  0  0  0  0  0  0  0  0  0
  136.0109  122.8068  121.1512 H   0  0  0  0  0  0  0  0  0  0  0  0
  136.3838  125.4345  122.6422 H   0  0  0  0  0  0  0  0  0  0  0  0
  137.2410  124.8909  121.1331 H   0  0  0  0  0  0  0  0  0  0  0  0
  135.2870  126.4160  120.9060 H   0  0  0  0  0  0  0  0  0  0  0  0
  133.2035  125.7924  121.1534 H   0  0  0  0  0  0  0  0  0  0  0  0
  133.6460  124.1117  120.5791 H   0  0  0  0  0  0  0  0  0  0  0  0
  134.0987  125.1740  123.4033 H   0  0  0  0  0  0  0  0  0  0  0  0
  131.8983  123.4354  122.2277 H   0  0  0  0  0  0  0  0  0  0  0  0
  132.3010  123.4957  123.9806 H   0  0  0  0  0  0  0  0  0  0  0  0
  131.5969  123.5733  125.0610 H   0  0  0  0  0  0  0  0  0  0  0  0
  130.9718  123.9709  127.4598 H   0  0  0  0  0  0  0  0  0  0  0  0
  130.6983  127.7110  124.1067 H   0  0  0  0  0  0  0  0  0  0  0  0
  130.4583  128.4485  128.7212 H   0  0  0  0  0  0  0  0  0  0  0  0
  128.7447  127.9613  128.3191 H   0  0  0  0  0  0  0  0  0  0  0  0
  135.3220  120.7311  123.8799 H   0  0  0  0  0  0  0  0  0  0  0  0
  135.6737  120.1022  126.2673 H   0  0  0  0  0  0  0  0  0  0  0  0
  1  2  1  0
  2  3  1  0
  3  4  2  0
  4  5  1  0
  5  6  1  0
  6  7  1  0
  7  8  1  0
  8  9  1  0
  9 10  1  0
 10 11  1  0
 11 12  1  0
 12 13  1  0
 13 14  1  0
 14 15  1  0
 15 16  2  0
 16 17  1  0
 17 18  2  0
 18 19  1  0
 18 20  1  0
 20 21  1  0
 21 22  1  0
  5 23  2  0
 23 24  1  0
 24  2  2  0
 11  6  1  0
 19 14  2  0
 22 17  1  0
  3 25  1  0
  4 26  1  0
  6 27  1  6
  7 28  1  0
  7 29  1  0
  8 30  1  0
  8 31  1  0
  9 32  1  0
 10 33  1  0
 10 34  1  0
 11 35  1  1
 12 36  1  0
 12 37  1  0
 15 38  1  0
 16 39  1  0
 19 40  1  0
 21 41  1  0
 21 42  1  0
 23 43  1  0
 24 44  1  0
M  END
>  <meeko>  (5) 
{"is_sidechain": [false], "free_energy": -9.414, "intermolecular_energy": -11.408, "internal_energy": -1.088}

$$$$
seed-2301
     RDKit          3D

 44 47  0  0  0  0  0  0  0  0999 V2000
  133.8350  121.5720  126.2920 F   0  0  0  0  0  0  0  0  0  0  0  0
  133.0940  122.6880  126.3440 C   0  0  0  0  0  0  0  0  0  0  0  0
  133.7230  123.9260  126.3520 C   0  0  0  0  0  0  0  0  0  0  0  0
  132.9550  125.0900  126.4090 C   0  0  0  0  0  0  0  0  0  0  0  0
  131.5530  125.0190  126.4540 C   0  0  0  0  0  0  0  0  0  0  0  0
  130.6840  126.2700  126.5290 C   0  0  2  0  0  0  0  0  0  0  0  0
  129.8650  126.3330  127.8360 C   0  0  0  0  0  0  0  0  0  0  0  0
  128.3740  126.1130  127.6000 C   0  0  0  0  0  0  0  0  0  0  0  0
  127.8070  127.0890  126.6730 N   0  0  0  0  0  0  0  0  0  0  0  0
  128.6850  127.4500  125.5580 C   0  0  0  0  0  0  0  0  0  0  0  0
  129.7860  126.4180  125.2720 C   0  0  1  0  0  0  0  0  0  0  0  0
  130.5920  126.8090  124.0190 C   0  0  0  0  0  0  0  0  0  0  0  0
  130.8830  125.6450  123.2450 O   0  0  0  0  0  0  0  0  0  0  0  0
  132.1910  125.4310  122.9030 C   0  0  0  0  0  0  0  0  0  0  0  0
  132.5770  124.0750  122.9110 C   0  0  0  0  0  0  0  0  0  0  0  0
  133.8810  123.6930  122.5830 C   0  0  0  0  0  0  0  0  0  0  0  0
  134.7720  124.6900  122.2540 C   0  0  0  0  0  0  0  0  0  0  0  0
  134.4010  126.0140  122.2460 C   0  0  0  0  0  0  0  0  0  0  0  0
  133.1190  126.4190  122.5660 C   0  0  0  0  0  0  0  0  0  0  0  0
  135.4260  126.8360  121.8950 O   0  0  0  0  0  0  0  0  0  0  0  0
  136.4840  125.8770  121.6820 C   0  0  0  0  0  0  0  0  0  0  0  0
  136.0740  124.5130  121.9090 O   0  0  0  0  0  0  0  0  0  0  0  0
  130.9400  123.7530  126.4470 C   0  0  0  0  0  0  0  0  0  0  0  0
  131.7100  122.5910  126.3920 C   0  0  0  0  0  0  0  0  0  0  0  0
  134.8205  123.9889  126.3136 H   0  0  0  0  0  0  0  0  0  0  0  0
  133.4519  126.0713  126.4188 H   0  0  0  0  0  0  0  0  0  0  0  0
  131.3650  127.1337  126.5448 H   0  0  0  0  0  0  0  0  0  0  0  0
  130.2327  125.5548  128.5210 H   0  0  0  0  0  0  0  0  0  0  0  0
  129.9919  127.3389  128.2628 H   0  0  0  0  0  0  0  0  0  0  0  0
  128.2270  125.1049  127.1851 H   0  0  0  0  0  0  0  0  0  0  0  0
  127.8607  126.2302  128.5658 H   0  0  0  0  0  0  0  0  0  0  0  0
  126.9100  126.7500  126.3250 H   0  0  0  0  0  0  0  0  0  0  0  0
  128.0688  127.5584  124.6533 H   0  0  0  0  0  0  0  0  0  0  0  0
  129.1904  128.3854  125.8401 H   0  0  0  0  0  0  0  0  0  0  0  0
  129.3322  125.4394  125.0567 H   0  0  0  0  0  0  0  0  0  0  0  0
  130.0037  127.5129  123.4120 H   0  0  0  0  0  0  0  0  0  0  0  0
  131.5352  127.2829  124.3286 H   0  0  0  0  0  0  0  0  0  0  0  0
  131.8394  123.3045  123.1799 H   0  0  0  0  0  0  0  0  0  0  0  0
  134.1840  122.6356  122.5875 H   0  0  0  0  0  0  0  0  0  0  0  0
  132.8391  127.4827  122.5557 H   0  0  0  0  0  0  0  0  0  0  0  0
  136.8332  125.9679  120.6429 H   0  0  0  0  0  0  0  0  0  0  0  0
  137.2785  126.1028  122.4085 H   0  0  0  0  0  0  0  0  0  0  0  0
  129.8432  123.6785  126.4852 H   0  0  0  0  0  0  0  0  0  0  0  0
  131.2237  121.6044  126.3867 H   0  0  0  0  0  0  0  0  0  0  0  0
  1  2  1  0
  2  3  1  0
  3  4  2  0
  4  5  1  0
  5  6  1  0
  6  7  1  0
  7  8  1  0
  8  9  1  0
  9 10  1  0
 10 11  1  0
 11 12  1  0
 12 13  1  0
 13 14  1  0
 14 15  1  0
 15 16  2  0
 16 17  1  0
 17 18  2  0
 18 19  1  0
 18 20  1  0
 20 21  1  0
 21 22  1  0
  5 23  2  0
 23 24  1  0
 24  2  2  0
 11  6  1  0
 19 14  2  0
 22 17  1  0
  3 25  1  0
  4 26  1  0
  6 27  1  1
  7 28  1  0
  7 29  1  0
  8 30  1  0
  8 31  1  0
  9 32  1  0
 10 33  1  0
 10 34  1  0
 11 35  1  6
 12 36  1  0
 12 37  1  0
 15 38  1  0
 16 39  1  0
 19 40  1  0
 21 41  1  0
 21 42  1  0
 23 43  1  0
 24 44  1  0
M  END
>  <meeko>  (6) 
{"is_sidechain": [false], "free_energy": -9.396, "intermolecular_energy": -10.754, "internal_energy": -1.721}

$$$$
seed-2301
     RDKit          3D

 44 47  0  0  0  0  0  0  0  0999 V2000
  135.5600  121.4290  127.8660 F   0  0  0  0  0  0  0  0  0  0  0  0
  135.3890  122.1160  126.7280 C   0  0  0  0  0  0  0  0  0  0  0  0
  135.0250  123.4550  126.7860 C   0  0  0  0  0  0  0  0  0  0  0  0
  134.8440  124.1730  125.6020 C   0  0  0  0  0  0  0  0  0  0  0  0
  135.0290  123.5530  124.3560 C   0  0  0  0  0  0  0  0  0  0  0  0
  134.8260  124.3040  123.0440 C   0  0  2  0  0  0  0  0  0  0  0  0
  136.1250  124.9800  122.5540 C   0  0  0  0  0  0  0  0  0  0  0  0
  136.0690  126.5000  122.6690 C   0  0  0  0  0  0  0  0  0  0  0  0
  134.9570  127.0750  121.9170 N   0  0  0  0  0  0  0  0  0  0  0  0
  133.7230  126.2870  121.9580 C   0  0  0  0  0  0  0  0  0  0  0  0
  133.6470  125.3090  123.1390 C   0  0  1  0  0  0  0  0  0  0  0  0
  132.2790  124.6030  123.1790 C   0  0  0  0  0  0  0  0  0  0  0  0
  131.2320  125.5640  123.0420 O   0  0  0  0  0  0  0  0  0  0  0  0
  130.8510  126.2400  124.1700 C   0  0  0  0  0  0  0  0  0  0  0  0
  130.4010  127.5550  123.9320 C   0  0  0  0  0  0  0  0  0  0  0  0
  129.9760  128.3750  124.9820 C   0  0  0  0  0  0  0  0  0  0  0  0
  130.0150  127.8500  126.2540 C   0  0  0  0  0  0  0  0  0  0  0  0
  130.4540  126.5690  126.4910 C   0  0  0  0  0  0  0  0  0  0  0  0
  130.8800  125.7380  125.4730 C   0  0  0  0  0  0  0  0  0  0  0  0
  130.4150  126.2450  127.8120 O   0  0  0  0  0  0  0  0  0  0  0  0
  129.9000  127.4690  128.3770 C   0  0  0  0  0  0  0  0  0  0  0  0
  129.6440  128.4910  127.3930 O   0  0  0  0  0  0  0  0  0  0  0  0
  135.3940  122.1950  124.3240 C   0  0  0  0  0  0  0  0  0  0  0  0
  135.5740  121.4790  125.5090 C   0  0  0  0  0  0  0  0  0  0  0  0
  134.8801  123.9472  127.7590 H   0  0  0  0  0  0  0  0  0  0  0  0
  134.5540  125.2332  125.6460 H   0  0  0  0  0  0  0  0  0  0  0  0
  134.5555  123.5571  122.2831 H   0  0  0  0  0  0  0  0  0  0  0  0
  136.9656  124.6107  123.1598 H   0  0  0  0  0  0  0  0  0  0  0  0
  136.2532  124.7287  121.4908 H   0  0  0  0  0  0  0  0  0  0  0  0
  135.9554  126.7700  123.7293 H   0  0  0  0  0  0  0  0  0  0  0  0
  137.0021  126.9026  122.2480 H   0  0  0  0  0  0  0  0  0  0  0  0
  134.7820  128.0280  122.2390 H   0  0  0  0  0  0  0  0  0  0  0  0
  132.8718  126.9803  122.0274 H   0  0  0  0  0  0  0  0  0  0  0  0
  133.7012  125.6809  121.0403 H   0  0  0  0  0  0  0  0  0  0  0  0
  133.7403  125.8610  124.0859 H   0  0  0  0  0  0  0  0  0  0  0  0
  132.2186  123.8777  122.3542 H   0  0  0  0  0  0  0  0  0  0  0  0
  132.1685  124.0817  124.1413 H   0  0  0  0  0  0  0  0  0  0  0  0
  130.3840  127.9425  122.9026 H   0  0  0  0  0  0  0  0  0  0  0  0
  129.6238  129.4008  124.7985 H   0  0  0  0  0  0  0  0  0  0  0  0
  131.2300  124.7162  125.6814 H   0  0  0  0  0  0  0  0  0  0  0  0
  128.9580  127.2431  128.8982 H   0  0  0  0  0  0  0  0  0  0  0  0
  130.6692  127.8605  129.0590 H   0  0  0  0  0  0  0  0  0  0  0  0
  135.5390  121.6924  123.3563 H   0  0  0  0  0  0  0  0  0  0  0  0
  135.8604  120.4174  125.4766 H   0  0  0  0  0  0  0  0  0  0  0  0
  1  2  1  0
  2  3  1  0
  3  4  2  0
  4  5  1  0
  5  6  1  0
  6  7  1  0
  7  8  1  0
  8  9  1  0
  9 10  1  0
 10 11  1  0
 11 12  1  0
 12 13  1  0
 13 14  1  0
 14 15  1  0
 15 16  2  0
 16 17  1  0
 17 18  2  0
 18 19  1  0
 18 20  1  0
 20 21  1  0
 21 22  1  0
  5 23  2  0
 23 24  1  0
 24  2  2  0
 11  6  1  0
 19 14  2  0
 22 17  1  0
  3 25  1  0
  4 26  1  0
  6 27  1  6
  7 28  1  0
  7 29  1  0
  8 30  1  0
  8 31  1  0
  9 32  1  0
 10 33  1  0
 10 34  1  0
 11 35  1  1
 12 36  1  0
 12 37  1  0
 15 38  1  0
 16 39  1  0
 19 40  1  0
 21 41  1  0
 21 42  1  0
 23 43  1  0
 24 44  1  0
M  END
>  <meeko>  (7) 
{"is_sidechain": [false], "free_energy": -9.366, "intermolecular_energy": -11.476, "internal_energy": -0.962}

$$$$
seed-2301
     RDKit          3D

 44 47  0  0  0  0  0  0  0  0999 V2000
  130.6090  123.7860  126.0520 F   0  0  0  0  0  0  0  0  0  0  0  0
  131.4560  124.3060  125.1540 C   0  0  0  0  0  0  0  0  0  0  0  0
  131.9080  125.6100  125.3160 C   0  0  0  0  0  0  0  0  0  0  0  0
  132.7900  126.1560  124.3800 C   0  0  0  0  0  0  0  0  0  0  0  0
  133.2240  125.3970  123.2810 C   0  0  0  0  0  0  0  0  0  0  0  0
  134.1750  125.9680  122.2340 C   0  0  2  0  0  0  0  0  0  0  0  0
  133.7050  125.6660  120.7940 C   0  0  0  0  0  0  0  0  0  0  0  0
  134.5970  124.6470  120.0920 C   0  0  0  0  0  0  0  0  0  0  0  0
  135.9900  125.0790  120.0240 N   0  0  0  0  0  0  0  0  0  0  0  0
  136.4690  125.7800  121.2170 C   0  0  0  0  0  0  0  0  0  0  0  0
  135.6360  125.5040  122.4780 C   0  0  1  0  0  0  0  0  0  0  0  0
  136.2660  126.1790  123.7100 C   0  0  0  0  0  0  0  0  0  0  0  0
  136.8920  125.1980  124.5360 O   0  0  0  0  0  0  0  0  0  0  0  0
  136.1520  124.0950  124.8680 C   0  0  0  0  0  0  0  0  0  0  0  0
  136.3150  123.0040  123.9910 C   0  0  0  0  0  0  0  0  0  0  0  0
  135.6280  121.8030  124.1940 C   0  0  0  0  0  0  0  0  0  0  0  0
  134.7870  121.7290  125.2820 C   0  0  0  0  0  0  0  0  0  0  0  0
  134.6230  122.7910  126.1400 C   0  0  0  0  0  0  0  0  0  0  0  0
  135.2900  123.9880  125.9620 C   0  0  0  0  0  0  0  0  0  0  0  0
  133.7510  122.5140  127.1450 O   0  0  0  0  0  0  0  0  0  0  0  0
  133.3860  121.1550  126.8220 C   0  0  0  0  0  0  0  0  0  0  0  0
  134.0400  120.6520  125.6400 O   0  0  0  0  0  0  0  0  0  0  0  0
  132.7490  124.0820  123.1380 C   0  0  0  0  0  0  0  0  0  0  0  0
  131.8670  123.5380  124.0740 C   0  0  0  0  0  0  0  0  0  0  0  0
  131.5734  126.2088  126.1760 H   0  0  0  0  0  0  0  0  0  0  0  0
  133.1474  127.1888  124.5049 H   0  0  0  0  0  0  0  0  0  0  0  0
  134.1580  127.0622  122.3457 H   0  0  0  0  0  0  0  0  0  0  0  0
  132.6795  125.2700  120.8330 H   0  0  0  0  0  0  0  0  0  0  0  0
  133.7537  126.6043  120.2219 H   0  0  0  0  0  0  0  0  0  0  0  0
  134.5486  123.6963  120.6432 H   0  0  0  0  0  0  0  0  0  0  0  0
  134.2303  124.5347  119.0610 H   0  0  0  0  0  0  0  0  0  0  0  0
  136.5880  124.2790  119.8160 H   0  0  0  0  0  0  0  0  0  0  0  0
  137.5051  125.4656  121.4108 H   0  0  0  0  0  0  0  0  0  0  0  0
  136.3862  126.8570  121.0092 H   0  0  0  0  0  0  0  0  0  0  0  0
  135.6240  124.4242  122.6874 H   0  0  0  0  0  0  0  0  0  0  0  0
  137.0178  126.9110  123.3800 H   0  0  0  0  0  0  0  0  0  0  0  0
  135.4787  126.6874  124.2859 H   0  0  0  0  0  0  0  0  0  0  0  0
  136.9948  123.0988  123.1314 H   0  0  0  0  0  0  0  0  0  0  0  0
  135.7545  120.9502  123.5109 H   0  0  0  0  0  0  0  0  0  0  0  0
  135.1471  124.8278  126.6579 H   0  0  0  0  0  0  0  0  0  0  0  0
  133.6563  120.5102  127.6712 H   0  0  0  0  0  0  0  0  0  0  0  0
  132.3043  121.1480  126.6224 H   0  0  0  0  0  0  0  0  0  0  0  0
  133.0752  123.4754  122.2803 H   0  0  0  0  0  0  0  0  0  0  0  0
  131.5006  122.5076  123.9559 H   0  0  0  0  0  0  0  0  0  0  0  0
  1  2  1  0
  2  3  1  0
  3  4  2  0
  4  5  1  0
  5  6  1  0
  6  7  1  0
  7  8  1  0
  8  9  1  0
  9 10  1  0
 10 11  1  0
 11 12  1  0
 12 13  1  0
 13 14  1  0
 14 15  1  0
 15 16  2  0
 16 17  1  0
 17 18  2  0
 18 19  1  0
 18 20  1  0
 20 21  1  0
 21 22  1  0
  5 23  2  0
 23 24  1  0
 24  2  2  0
 11  6  1  0
 19 14  2  0
 22 17  1  0
  3 25  1  0
  4 26  1  0
  6 27  1  6
  7 28  1  0
  7 29  1  0
  8 30  1  0
  8 31  1  0
  9 32  1  0
 10 33  1  0
 10 34  1  0
 11 35  1  1
 12 36  1  0
 12 37  1  0
 15 38  1  0
 16 39  1  0
 19 40  1  0
 21 41  1  0
 21 42  1  0
 23 43  1  0
 24 44  1  0
M  END
>  <meeko>  (8) 
{"is_sidechain": [false], "free_energy": -9.35, "intermolecular_energy": -10.812, "internal_energy": -1.606}

$$$$
seed-2301
     RDKit          3D

 44 47  0  0  0  0  0  0  0  0999 V2000
  136.8890  120.9230  127.0410 F   0  0  0  0  0  0  0  0  0  0  0  0
  136.3410  121.4720  125.9480 C   0  0  0  0  0  0  0  0  0  0  0  0
  135.1790  120.9260  125.4190 C   0  0  0  0  0  0  0  0  0  0  0  0
  134.6080  121.4940  124.2780 C   0  0  0  0  0  0  0  0  0  0  0  0
  135.1960  122.6120  123.6660 C   0  0  0  0  0  0  0  0  0  0  0  0
  134.6050  123.2490  122.4120 C   0  0  2  0  0  0  0  0  0  0  0  0
  135.6020  123.2440  121.2320 C   0  0  0  0  0  0  0  0  0  0  0  0
  136.1160  124.6410  120.9000 C   0  0  0  0  0  0  0  0  0  0  0  0
  135.0370  125.5680  120.5670 N   0  0  0  0  0  0  0  0  0  0  0  0
  133.8230  125.4010  121.3690 C   0  0  0  0  0  0  0  0  0  0  0  0
  134.0520  124.6700  122.7000 C   0  0  1  0  0  0  0  0  0  0  0  0
  132.7590  124.6350  123.5360 C   0  0  0  0  0  0  0  0  0  0  0  0
  133.0210  125.1070  124.8570 O   0  0  0  0  0  0  0  0  0  0  0  0
  131.9630  125.1610  125.7240 C   0  0  0  0  0  0  0  0  0  0  0  0
  131.7260  126.4390  126.2700 C   0  0  0  0  0  0  0  0  0  0  0  0
  130.6800  126.6580  127.1710 C   0  0  0  0  0  0  0  0  0  0  0  0
  129.8920  125.5790  127.5050 C   0  0  0  0  0  0  0  0  0  0  0  0
  130.1190  124.3310  126.9760 C   0  0  0  0  0  0  0  0  0  0  0  0
  131.1460  124.0860  126.0840 C   0  0  0  0  0  0  0  0  0  0  0  0
  129.2320  123.4060  127.4330 O   0  0  0  0  0  0  0  0  0  0  0  0
  128.4210  124.2170  128.3090 C   0  0  0  0  0  0  0  0  0  0  0  0
  128.8350  125.5980  128.3590 O   0  0  0  0  0  0  0  0  0  0  0  0
  136.3740  123.1440  124.2200 C   0  0  0  0  0  0  0  0  0  0  0  0
  136.9440  122.5740  125.3600 C   0  0  0  0  0  0  0  0  0  0  0  0
  134.7113  120.0518  125.8955 H   0  0  0  0  0  0  0  0  0  0  0  0
  133.6893  121.0614  123.8552 H   0  0  0  0  0  0  0  0  0  0  0  0
  133.7526  122.6252  122.1049 H   0  0  0  0  0  0  0  0  0  0  0  0
  136.4583  122.6058  121.4956 H   0  0  0  0  0  0  0  0  0  0  0  0
  135.0724  122.8620  120.3468 H   0  0  0  0  0  0  0  0  0  0  0  0
  136.6617  125.0327  121.7711 H   0  0  0  0  0  0  0  0  0  0  0  0
  136.7692  124.5569  120.0189 H   0  0  0  0  0  0  0  0  0  0  0  0
  135.3780  126.5280  120.6310 H   0  0  0  0  0  0  0  0  0  0  0  0
  133.4125  126.3978  121.5875 H   0  0  0  0  0  0  0  0  0  0  0  0
  133.1331  124.7802  120.7784 H   0  0  0  0  0  0  0  0  0  0  0  0
  134.7963  125.2144  123.2997 H   0  0  0  0  0  0  0  0  0  0  0  0
  132.0015  125.2771  123.0629 H   0  0  0  0  0  0  0  0  0  0  0  0
  132.3897  123.6002  123.5881 H   0  0  0  0  0  0  0  0  0  0  0  0
  132.3757  127.2786  125.9819 H   0  0  0  0  0  0  0  0  0  0  0  0
  130.4932  127.6547  127.5973 H   0  0  0  0  0  0  0  0  0  0  0  0
  131.3143  123.0801  125.6719 H   0  0  0  0  0  0  0  0  0  0  0  0
  127.3800  124.1778  127.9557 H   0  0  0  0  0  0  0  0  0  0  0  0
  128.5317  123.8083  129.3242 H   0  0  0  0  0  0  0  0  0  0  0  0
  136.8508  124.0173  123.7509 H   0  0  0  0  0  0  0  0  0  0  0  0
  137.8649  122.9960  125.7888 H   0  0  0  0  0  0  0  0  0  0  0  0
  1  2  1  0
  2  3  1  0
  3  4  2  0
  4  5  1  0
  5  6  1  0
  6  7  1  0
  7  8  1  0
  8  9  1  0
  9 10  1  0
 10 11  1  0
 11 12  1  0
 12 13  1  0
 13 14  1  0
 14 15  1  0
 15 16  2  0
 16 17  1  0
 17 18  2  0
 18 19  1  0
 18 20  1  0
 20 21  1  0
 21 22  1  0
  5 23  2  0
 23 24  1  0
 24  2  2  0
 11  6  1  0
 19 14  2  0
 22 17  1  0
  3 25  1  0
  4 26  1  0
  6 27  1  6
  7 28  1  0
  7 29  1  0
  8 30  1  0
  8 31  1  0
  9 32  1  0
 10 33  1  0
 10 34  1  0
 11 35  1  1
 12 36  1  0
 12 37  1  0
 15 38  1  0
 16 39  1  0
 19 40  1  0
 21 41  1  0
 21 42  1  0
 23 43  1  0
 24 44  1  0
M  END
>  <meeko>  (9) 
{"is_sidechain": [false], "free_energy": -9.207, "intermolecular_energy": -11.388, "internal_energy": -0.854}

$$$$
seed-2301
     RDKit          3D

 44 47  0  0  0  0  0  0  0  0999 V2000
  134.2470  125.6180  119.3620 F   0  0  0  0  0  0  0  0  0  0  0  0
  134.3380  125.1720  120.6220 C   0  0  0  0  0  0  0  0  0  0  0  0
  134.9780  123.9660  120.8750 C   0  0  0  0  0  0  0  0  0  0  0  0
  135.0720  123.4970  122.1880 C   0  0  0  0  0  0  0  0  0  0  0  0
  134.5300  124.2370  123.2510 C   0  0  0  0  0  0  0  0  0  0  0  0
  134.6040  123.7470  124.6930 C   0  0  2  0  0  0  0  0  0  0  0  0
  136.0610  123.5470  125.1660 C   0  0  0  0  0  0  0  0  0  0  0  0
  136.4190  122.0750  125.3420 C   0  0  0  0  0  0  0  0  0  0  0  0
  135.5450  121.4000  126.2980 N   0  0  0  0  0  0  0  0  0  0  0  0
  134.1420  121.8150  126.2380 C   0  0  0  0  0  0  0  0  0  0  0  0
  133.7440  122.4730  124.9090 C   0  0  1  0  0  0  0  0  0  0  0  0
  132.2340  122.7760  124.8780 C   0  0  0  0  0  0  0  0  0  0  0  0
  131.7170  122.8050  126.2080 O   0  0  0  0  0  0  0  0  0  0  0  0
  131.1490  123.9760  126.6340 C   0  0  0  0  0  0  0  0  0  0  0  0
  129.9050  123.8150  127.2760 C   0  0  0  0  0  0  0  0  0  0  0  0
  129.1980  124.9160  127.7690 C   0  0  0  0  0  0  0  0  0  0  0  0
  129.7630  126.1610  127.6030 C   0  0  0  0  0  0  0  0  0  0  0  0
  130.9770  126.3230  126.9760 C   0  0  0  0  0  0  0  0  0  0  0  0
  131.6950  125.2520  126.4800 C   0  0  0  0  0  0  0  0  0  0  0  0
  131.3560  127.6270  126.9140 O   0  0  0  0  0  0  0  0  0  0  0  0
  130.2430  128.2670  127.5740 C   0  0  0  0  0  0  0  0  0  0  0  0
  129.2290  127.3410  128.0140 O   0  0  0  0  0  0  0  0  0  0  0  0
  133.8850  125.4530  122.9680 C   0  0  0  0  0  0  0  0  0  0  0  0
  133.7900  125.9200  121.6550 C   0  0  0  0  0  0  0  0  0  0  0  0
  135.4083  123.3835  120.0471 H   0  0  0  0  0  0  0  0  0  0  0  0
  135.5749  122.5399  122.3905 H   0  0  0  0  0  0  0  0  0  0  0  0
  134.1748  124.5396  125.3236 H   0  0  0  0  0  0  0  0  0  0  0  0
  136.7382  123.9884  124.4199 H   0  0  0  0  0  0  0  0  0  0  0  0
  136.1655  124.0367  126.1454 H   0  0  0  0  0  0  0  0  0  0  0  0
  136.3327  121.5715  124.3678 H   0  0  0  0  0  0  0  0  0  0  0  0
  137.4461  122.0239  125.7324 H   0  0  0  0  0  0  0  0  0  0  0  0
  135.6230  120.3890  126.1790 H   0  0  0  0  0  0  0  0  0  0  0  0
  133.5113  120.9262  126.3869 H   0  0  0  0  0  0  0  0  0  0  0  0
  133.9988  122.5711  127.0240 H   0  0  0  0  0  0  0  0  0  0  0  0
  133.9406  121.7799  124.0778 H   0  0  0  0  0  0  0  0  0  0  0  0
  132.0678  123.7530  124.4007 H   0  0  0  0  0  0  0  0  0  0  0  0
  131.7186  121.9903  124.3061 H   0  0  0  0  0  0  0  0  0  0  0  0
  129.4828  122.8058  127.3913 H   0  0  0  0  0  0  0  0  0  0  0  0
  128.2269  124.7924  128.2706 H   0  0  0  0  0  0  0  0  0  0  0  0
  132.6640  125.3994  125.9807 H   0  0  0  0  0  0  0  0  0  0  0  0
  130.6235  128.8104  128.4515 H   0  0  0  0  0  0  0  0  0  0  0  0
  129.7731  128.9389  126.8406 H   0  0  0  0  0  0  0  0  0  0  0  0
  133.4506  126.0429  123.7886 H   0  0  0  0  0  0  0  0  0  0  0  0
  133.2847  126.8734  121.4412 H   0  0  0  0  0  0  0  0  0  0  0  0
  1  2  1  0
  2  3  1  0
  3  4  2  0
  4  5  1  0
  5  6  1  0
  6  7  1  0
  7  8  1  0
  8  9  1  0
  9 10  1  0
 10 11  1  0
 11 12  1  0
 12 13  1  0
 13 14  1  0
 14 15  1  0
 15 16  2  0
 16 17  1  0
 17 18  2  0
 18 19  1  0
 18 20  1  0
 20 21  1  0
 21 22  1  0
  5 23  2  0
 23 24  1  0
 24  2  2  0
 11  6  1  0
 19 14  2  0
 22 17  1  0
  3 25  1  0
  4 26  1  0
  6 27  1  1
  7 28  1  0
  7 29  1  0
  8 30  1  0
  8 31  1  0
  9 32  1  0
 10 33  1  0
 10 34  1  0
 11 35  1  6
 12 36  1  0
 12 37  1  0
 15 38  1  0
 16 39  1  0
 19 40  1  0
 21 41  1  0
 21 42  1  0
 23 43  1  0
 24 44  1  0
M  END
>  <meeko>  (10) 
{"is_sidechain": [false], "free_energy": -9.159, "intermolecular_energy": -11.121, "internal_energy": -1.06}

$$$$
seed-2301
     RDKit          3D

 44 47  0  0  0  0  0  0  0  0999 V2000
  135.2060  122.6850  117.6710 F   0  0  0  0  0  0  0  0  0  0  0  0
  135.0910  123.4710  118.7500 C   0  0  0  0  0  0  0  0  0  0  0  0
  134.4680  124.7060  118.6330 C   0  0  0  0  0  0  0  0  0  0  0  0
  134.3490  125.5290  119.7560 C   0  0  0  0  0  0  0  0  0  0  0  0
  134.8500  125.1140  121.0000 C   0  0  0  0  0  0  0  0  0  0  0  0
  134.7490  125.9930  122.2430 C   0  0  2  0  0  0  0  0  0  0  0  0
  136.1250  126.5380  122.6850 C   0  0  0  0  0  0  0  0  0  0  0  0
  136.6130  125.9010  123.9820 C   0  0  0  0  0  0  0  0  0  0  0  0
  135.6800  126.1010  125.0870 N   0  0  0  0  0  0  0  0  0  0  0  0
  134.2670  126.0190  124.7120 C   0  0  0  0  0  0  0  0  0  0  0  0
  134.0140  125.2640  123.3990 C   0  0  1  0  0  0  0  0  0  0  0  0
  132.5040  125.1190  123.1320 C   0  0  0  0  0  0  0  0  0  0  0  0
  131.7990  126.2120  123.7200 O   0  0  0  0  0  0  0  0  0  0  0  0
  130.8320  125.9100  124.6400 C   0  0  0  0  0  0  0  0  0  0  0  0
  129.7710  126.8380  124.6900 C   0  0  0  0  0  0  0  0  0  0  0  0
  128.7040  126.6700  125.5790 C   0  0  0  0  0  0  0  0  0  0  0  0
  128.7310  125.5660  126.4010 C   0  0  0  0  0  0  0  0  0  0  0  0
  129.7630  124.6590  126.3570 C   0  0  0  0  0  0  0  0  0  0  0  0
  130.8290  124.8010  125.4900 C   0  0  0  0  0  0  0  0  0  0  0  0
  129.5990  123.6450  127.2490 O   0  0  0  0  0  0  0  0  0  0  0  0
  128.3450  124.0180  127.8570 C   0  0  0  0  0  0  0  0  0  0  0  0
  127.7890  125.2360  127.3230 O   0  0  0  0  0  0  0  0  0  0  0  0
  135.4800  123.8600  121.0920 C   0  0  0  0  0  0  0  0  0  0  0  0
  135.5990  123.0410  119.9680 C   0  0  0  0  0  0  0  0  0  0  0  0
  134.0702  125.0349  117.6616 H   0  0  0  0  0  0  0  0  0  0  0  0
  133.8590  126.5096  119.6646 H   0  0  0  0  0  0  0  0  0  0  0  0
  134.1394  126.8670  121.9701 H   0  0  0  0  0  0  0  0  0  0  0  0
  136.8584  126.3308  121.8918 H   0  0  0  0  0  0  0  0  0  0  0  0
  136.0170  127.6183  122.8617 H   0  0  0  0  0  0  0  0  0  0  0  0
  136.7404  124.8207  123.8186 H   0  0  0  0  0  0  0  0  0  0  0  0
  137.5635  126.3828  124.2548 H   0  0  0  0  0  0  0  0  0  0  0  0
  135.8890  125.4410  125.8360 H   0  0  0  0  0  0  0  0  0  0  0  0
  133.7242  125.5035  125.5180 H   0  0  0  0  0  0  0  0  0  0  0  0
  133.9170  127.0506  124.5594 H   0  0  0  0  0  0  0  0  0  0  0  0
  134.4165  124.2430  123.4735 H   0  0  0  0  0  0  0  0  0  0  0  0
  132.3247  125.1110  122.0467 H   0  0  0  0  0  0  0  0  0  0  0  0
  132.1469  124.1777  123.5751 H   0  0  0  0  0  0  0  0  0  0  0  0
  129.7827  127.7090  124.0183 H   0  0  0  0  0  0  0  0  0  0  0  0
  127.8753  127.3922  125.6197 H   0  0  0  0  0  0  0  0  0  0  0  0
  131.6474  124.0663  125.4695 H   0  0  0  0  0  0  0  0  0  0  0  0
  127.6229  123.2044  127.6939 H   0  0  0  0  0  0  0  0  0  0  0  0
  128.5415  124.1921  128.9252 H   0  0  0  0  0  0  0  0  0  0  0  0
  135.8825  123.5216  122.0582 H   0  0  0  0  0  0  0  0  0  0  0  0
  136.0923  122.0610  120.0470 H   0  0  0  0  0  0  0  0  0  0  0  0
  1  2  1  0
  2  3  1  0
  3  4  2  0
  4  5  1  0
  5  6  1  0
  6  7  1  0
  7  8  1  0
  8  9  1  0
  9 10  1  0
 10 11  1  0
 11 12  1  0
 12 13  1  0
 13 14  1  0
 14 15  1  0
 15 16  2  0
 16 17  1  0
 17 18  2  0
 18 19  1  0
 18 20  1  0
 20 21  1  0
 21 22  1  0
  5 23  2  0
 23 24  1  0
 24  2  2  0
 11  6  1  0
 19 14  2  0
 22 17  1  0
  3 25  1  0
  4 26  1  0
  6 27  1  6
  7 28  1  0
  7 29  1  0
  8 30  1  0
  8 31  1  0
  9 32  1  0
 10 33  1  0
 10 34  1  0
 11 35  1  1
 12 36  1  0
 12 37  1  0
 15 38  1  0
 16 39  1  0
 19 40  1  0
 21 41  1  0
 21 42  1  0
 23 43  1  0
 24 44  1  0
M  END
>  <meeko>  (11) 
{"is_sidechain": [false], "free_energy": -9.092, "intermolecular_energy": -11.423, "internal_energy": -0.675}

$$$$
seed-2301
     RDKit          3D

 44 47  0  0  0  0  0  0  0  0999 V2000
  135.1280  123.6910  117.8120 F   0  0  0  0  0  0  0  0  0  0  0  0
  135.0470  124.0680  119.0950 C   0  0  0  0  0  0  0  0  0  0  0  0
  135.7570  123.3640  120.0590 C   0  0  0  0  0  0  0  0  0  0  0  0
  135.6730  123.7530  121.3980 C   0  0  0  0  0  0  0  0  0  0  0  0
  134.8810  124.8490  121.7750 C   0  0  0  0  0  0  0  0  0  0  0  0
  134.7570  125.2910  123.2290 C   0  0  2  0  0  0  0  0  0  0  0  0
  135.8560  126.3020  123.6260 C   0  0  0  0  0  0  0  0  0  0  0  0
  136.8790  125.7020  124.5850 C   0  0  0  0  0  0  0  0  0  0  0  0
  136.2670  125.2050  125.8140 N   0  0  0  0  0  0  0  0  0  0  0  0
  134.9650  124.5600  125.6280 C   0  0  0  0  0  0  0  0  0  0  0  0
  134.7100  124.0760  124.1940 C   0  0  1  0  0  0  0  0  0  0  0  0
  133.3770  123.3100  124.1030 C   0  0  0  0  0  0  0  0  0  0  0  0
  132.3090  124.2210  123.8440 O   0  0  0  0  0  0  0  0  0  0  0  0
  131.6130  124.6930  124.9240 C   0  0  0  0  0  0  0  0  0  0  0  0
  131.1520  123.6880  125.7990 C   0  0  0  0  0  0  0  0  0  0  0  0
  130.4250  124.0090  126.9500 C   0  0  0  0  0  0  0  0  0  0  0  0
  130.1780  125.3410  127.1940 C   0  0  0  0  0  0  0  0  0  0  0  0
  130.6250  126.3250  126.3440 C   0  0  0  0  0  0  0  0  0  0  0  0
  131.3450  126.0360  125.2000 C   0  0  0  0  0  0  0  0  0  0  0  0
  130.2760  127.5700  126.7640 O   0  0  0  0  0  0  0  0  0  0  0  0
  129.5590  127.2570  127.9780 C   0  0  0  0  0  0  0  0  0  0  0  0
  129.4940  125.8430  128.2550 O   0  0  0  0  0  0  0  0  0  0  0  0
  134.1700  125.5430  120.7800 C   0  0  0  0  0  0  0  0  0  0  0  0
  134.2540  125.1520  119.4420 C   0  0  0  0  0  0  0  0  0  0  0  0
  136.3814  122.5057  119.7700 H   0  0  0  0  0  0  0  0  0  0  0  0
  136.2324  123.1956  122.1638 H   0  0  0  0  0  0  0  0  0  0  0  0
  133.7962  125.8182  123.3235 H   0  0  0  0  0  0  0  0  0  0  0  0
  136.3770  126.6331  122.7155 H   0  0  0  0  0  0  0  0  0  0  0  0
  135.3680  127.1434  124.1397 H   0  0  0  0  0  0  0  0  0  0  0  0
  137.3878  124.8669  124.0812 H   0  0  0  0  0  0  0  0  0  0  0  0
  137.5862  126.4980  124.8612 H   0  0  0  0  0  0  0  0  0  0  0  0
  136.9130  124.5730  126.2880 H   0  0  0  0  0  0  0  0  0  0  0  0
  134.9090  123.6921  126.3016 H   0  0  0  0  0  0  0  0  0  0  0  0
  134.1988  125.3173  125.8504 H   0  0  0  0  0  0  0  0  0  0  0  0
  135.4978  123.3687  123.8954 H   0  0  0  0  0  0  0  0  0  0  0  0
  133.4343  122.5741  123.2874 H   0  0  0  0  0  0  0  0  0  0  0  0
  133.1899  122.7949  125.0567 H   0  0  0  0  0  0  0  0  0  0  0  0
  131.3678  122.6334  125.5725 H   0  0  0  0  0  0  0  0  0  0  0  0
  130.0644  123.2268  127.6342 H   0  0  0  0  0  0  0  0  0  0  0  0
  131.6947  126.8355  124.5303 H   0  0  0  0  0  0  0  0  0  0  0  0
  130.0635  127.7546  128.8194 H   0  0  0  0  0  0  0  0  0  0  0  0
  128.5257  127.6105  127.8459 H   0  0  0  0  0  0  0  0  0  0  0  0
  133.5417  126.4020  121.0582 H   0  0  0  0  0  0  0  0  0  0  0  0
  133.6953  125.6997  118.6687 H   0  0  0  0  0  0  0  0  0  0  0  0
  1  2  1  0
  2  3  1  0
  3  4  2  0
  4  5  1  0
  5  6  1  0
  6  7  1  0
  7  8  1  0
  8  9  1  0
  9 10  1  0
 10 11  1  0
 11 12  1  0
 12 13  1  0
 13 14  1  0
 14 15  1  0
 15 16  2  0
 16 17  1  0
 17 18  2  0
 18 19  1  0
 18 20  1  0
 20 21  1  0
 21 22  1  0
  5 23  2  0
 23 24  1  0
 24  2  2  0
 11  6  1  0
 19 14  2  0
 22 17  1  0
  3 25  1  0
  4 26  1  0
  6 27  1  6
  7 28  1  0
  7 29  1  0
  8 30  1  0
  8 31  1  0
  9 32  1  0
 10 33  1  0
 10 34  1  0
 11 35  1  6
 12 36  1  0
 12 37  1  0
 15 38  1  0
 16 39  1  0
 19 40  1  0
 21 41  1  0
 21 42  1  0
 23 43  1  0
 24 44  1  0
M  END
>  <meeko>  (12) 
{"is_sidechain": [false], "free_energy": -9.086, "intermolecular_energy": -11.188, "internal_energy": -0.904}

$$$$
seed-2301
     RDKit          3D

 44 47  0  0  0  0  0  0  0  0999 V2000
  134.6730  125.0050  118.3270 F   0  0  0  0  0  0  0  0  0  0  0  0
  134.6990  124.7410  119.6410 C   0  0  0  0  0  0  0  0  0  0  0  0
  135.3040  123.5740  120.0900 C   0  0  0  0  0  0  0  0  0  0  0  0
  135.3310  123.2940  121.4580 C   0  0  0  0  0  0  0  0  0  0  0  0
  134.7560  124.1830  122.3800 C   0  0  0  0  0  0  0  0  0  0  0  0
  134.7570  123.9010  123.8790 C   0  0  2  0  0  0  0  0  0  0  0  0
  136.0270  123.1460  124.3290 C   0  0  0  0  0  0  0  0  0  0  0  0
  135.7350  121.7020  124.7260 C   0  0  0  0  0  0  0  0  0  0  0  0
  134.7560  121.6090  125.8060 N   0  0  0  0  0  0  0  0  0  0  0  0
  133.6680  122.5850  125.7270 C   0  0  0  0  0  0  0  0  0  0  0  0
  133.4600  123.1740  124.3240 C   0  0  1  0  0  0  0  0  0  0  0  0
  132.2300  124.1010  124.2950 C   0  0  0  0  0  0  0  0  0  0  0  0
  132.4630  125.2430  125.1200 O   0  0  0  0  0  0  0  0  0  0  0  0
  131.5190  125.5330  126.0680 C   0  0  0  0  0  0  0  0  0  0  0  0
  131.5960  126.8450  126.5780 C   0  0  0  0  0  0  0  0  0  0  0  0
  130.7000  127.2960  127.5530 C   0  0  0  0  0  0  0  0  0  0  0  0
  129.7430  126.4100  127.9940 C   0  0  0  0  0  0  0  0  0  0  0  0
  129.6640  125.1290  127.5000 C   0  0  0  0  0  0  0  0  0  0  0  0
  130.5360  124.6580  126.5370 C   0  0  0  0  0  0  0  0  0  0  0  0
  128.6520  124.4180  128.0660 O   0  0  0  0  0  0  0  0  0  0  0  0
  128.1030  125.3990  128.9710 C   0  0  0  0  0  0  0  0  0  0  0  0
  128.7910  126.6650  128.9300 O   0  0  0  0  0  0  0  0  0  0  0  0
  134.1470  125.3560  121.8990 C   0  0  0  0  0  0  0  0  0  0  0  0
  134.1200  125.6330  120.5310 C   0  0  0  0  0  0  0  0  0  0  0  0
  135.7589  122.8749  119.3728 H   0  0  0  0  0  0  0  0  0  0  0  0
  135.8068  122.3691  121.8161 H   0  0  0  0  0  0  0  0  0  0  0  0
  134.7747  124.8752  124.3894 H   0  0  0  0  0  0  0  0  0  0  0  0
  136.7499  123.1452  123.4999 H   0  0  0  0  0  0  0  0  0  0  0  0
  136.4286  123.6624  125.2133 H   0  0  0  0  0  0  0  0  0  0  0  0
  135.3447  121.1662  123.8482 H   0  0  0  0  0  0  0  0  0  0  0  0
  136.6743  121.2562  125.0852 H   0  0  0  0  0  0  0  0  0  0  0  0
  134.3810  120.6600  125.8480 H   0  0  0  0  0  0  0  0  0  0  0  0
  132.7357  122.0899  126.0363 H   0  0  0  0  0  0  0  0  0  0  0  0
  133.9415  123.4216  126.3868 H   0  0  0  0  0  0  0  0  0  0  0  0
  133.2565  122.3647  123.6074 H   0  0  0  0  0  0  0  0  0  0  0  0
  132.0448  124.4292  123.2616 H   0  0  0  0  0  0  0  0  0  0  0  0
  131.3544  123.5532  124.6735 H   0  0  0  0  0  0  0  0  0  0  0  0
  132.3742  127.5259  126.2027 H   0  0  0  0  0  0  0  0  0  0  0  0
  130.7579  128.3194  127.9521 H   0  0  0  0  0  0  0  0  0  0  0  0
  130.4589  123.6300  126.1531 H   0  0  0  0  0  0  0  0  0  0  0  0
  127.0487  125.5665  128.7057 H   0  0  0  0  0  0  0  0  0  0  0  0
  128.2175  125.0004  129.9898 H   0  0  0  0  0  0  0  0  0  0  0  0
  133.6878  126.0615  122.6071 H   0  0  0  0  0  0  0  0  0  0  0  0
  133.6427  126.5526  120.1616 H   0  0  0  0  0  0  0  0  0  0  0  0
  1  2  1  0
  2  3  1  0
  3  4  2  0
  4  5  1  0
  5  6  1  0
  6  7  1  0
  7  8  1  0
  8  9  1  0
  9 10  1  0
 10 11  1  0
 11 12  1  0
 12 13  1  0
 13 14  1  0
 14 15  1  0
 15 16  2  0
 16 17  1  0
 17 18  2  0
 18 19  1  0
 18 20  1  0
 20 21  1  0
 21 22  1  0
  5 23  2  0
 23 24  1  0
 24  2  2  0
 11  6  1  0
 19 14  2  0
 22 17  1  0
  3 25  1  0
  4 26  1  0
  6 27  1  1
  7 28  1  0
  7 29  1  0
  8 30  1  0
  8 31  1  0
  9 32  1  0
 10 33  1  0
 10 34  1  0
 11 35  1  6
 12 36  1  0
 12 37  1  0
 15 38  1  0
 16 39  1  0
 19 40  1  0
 21 41  1  0
 21 42  1  0
 23 43  1  0
 24 44  1  0
M  END
>  <meeko>  (13) 
{"is_sidechain": [false], "free_energy": -9.035, "intermolecular_energy": -11.398, "internal_energy": -0.632}

$$$$
seed-2301
     RDKit          3D

 44 47  0  0  0  0  0  0  0  0999 V2000
  129.6360  126.8920  125.7660 F   0  0  0  0  0  0  0  0  0  0  0  0
  130.6330  126.0260  125.5440 C   0  0  0  0  0  0  0  0  0  0  0  0
  131.0460  125.1820  126.5670 C   0  0  0  0  0  0  0  0  0  0  0  0
  132.0870  124.2800  126.3390 C   0  0  0  0  0  0  0  0  0  0  0  0
  132.7160  124.2170  125.0850 C   0  0  0  0  0  0  0  0  0  0  0  0
  133.8640  123.2520  124.8060 C   0  0  2  0  0  0  0  0  0  0  0  0
  133.6280  121.8660  125.4460 C   0  0  0  0  0  0  0  0  0  0  0  0
  134.5630  121.6010  126.6220 C   0  0  0  0  0  0  0  0  0  0  0  0
  135.9710  121.6830  126.2430 N   0  0  0  0  0  0  0  0  0  0  0  0
  136.2820  122.7390  125.2780 C   0  0  0  0  0  0  0  0  0  0  0  0
  135.2310  123.8580  125.2210 C   0  0  1  0  0  0  0  0  0  0  0  0
  135.6820  124.9850  124.2720 C   0  0  0  0  0  0  0  0  0  0  0  0
  136.4570  124.4400  123.2040 O   0  0  0  0  0  0  0  0  0  0  0  0
  135.9040  124.4700  121.9520 C   0  0  0  0  0  0  0  0  0  0  0  0
  135.2030  125.6570  121.6570 C   0  0  0  0  0  0  0  0  0  0  0  0
  134.5820  125.8420  120.4180 C   0  0  0  0  0  0  0  0  0  0  0  0
  134.6810  124.8210  119.5000 C   0  0  0  0  0  0  0  0  0  0  0  0
  135.3630  123.6610  119.7820 C   0  0  0  0  0  0  0  0  0  0  0  0
  135.9850  123.4530  120.9980 C   0  0  0  0  0  0  0  0  0  0  0  0
  135.3410  122.7830  118.7440 O   0  0  0  0  0  0  0  0  0  0  0  0
  134.5690  123.5240  117.7760 C   0  0  0  0  0  0  0  0  0  0  0  0
  134.1470  124.8180  118.2500 O   0  0  0  0  0  0  0  0  0  0  0  0
  132.2810  125.0830  124.0670 C   0  0  0  0  0  0  0  0  0  0  0  0
  131.2410  125.9860  124.2970 C   0  0  0  0  0  0  0  0  0  0  0  0
  130.5558  125.2240  127.5509 H   0  0  0  0  0  0  0  0  0  0  0  0
  132.4174  123.6128  127.1487 H   0  0  0  0  0  0  0  0  0  0  0  0
  133.8947  123.0936  123.7179 H   0  0  0  0  0  0  0  0  0  0  0  0
  132.5887  121.8140  125.8025 H   0  0  0  0  0  0  0  0  0  0  0  0
  133.8300  121.1039  124.6789 H   0  0  0  0  0  0  0  0  0  0  0  0
  134.3643  122.3463  127.4063 H   0  0  0  0  0  0  0  0  0  0  0  0
  134.3708  120.5787  126.9796 H   0  0  0  0  0  0  0  0  0  0  0  0
  136.5460  121.7840  127.0800 H   0  0  0  0  0  0  0  0  0  0  0  0
  137.2491  123.1855  125.5526 H   0  0  0  0  0  0  0  0  0  0  0  0
  136.3019  122.2681  124.2841 H   0  0  0  0  0  0  0  0  0  0  0  0
  135.1182  124.3136  126.2159 H   0  0  0  0  0  0  0  0  0  0  0  0
  134.7965  125.4903  123.8591 H   0  0  0  0  0  0  0  0  0  0  0  0
  136.2946  125.7067  124.8323 H   0  0  0  0  0  0  0  0  0  0  0  0
  135.1435  126.4518  122.4151 H   0  0  0  0  0  0  0  0  0  0  0  0
  134.0353  126.7679  120.1857 H   0  0  0  0  0  0  0  0  0  0  0  0
  136.5256  122.5183  121.2077 H   0  0  0  0  0  0  0  0  0  0  0  0
  135.1836  123.6662  116.8749 H   0  0  0  0  0  0  0  0  0  0  0  0
  133.6592  122.9407  117.5710 H   0  0  0  0  0  0  0  0  0  0  0  0
  132.7645  125.0491  123.0795 H   0  0  0  0  0  0  0  0  0  0  0  0
  130.9060  126.6608  123.4955 H   0  0  0  0  0  0  0  0  0  0  0  0
  1  2  1  0
  2  3  1  0
  3  4  2  0
  4  5  1  0
  5  6  1  0
  6  7  1  0
  7  8  1  0
  8  9  1  0
  9 10  1  0
 10 11  1  0
 11 12  1  0
 12 13  1  0
 13 14  1  0
 14 15  1  0
 15 16  2  0
 16 17  1  0
 17 18  2  0
 18 19  1  0
 18 20  1  0
 20 21  1  0
 21 22  1  0
  5 23  2  0
 23 24  1  0
 24  2  2  0
 11  6  1  0
 19 14  2  0
 22 17  1  0
  3 25  1  0
  4 26  1  0
  6 27  1  6
  7 28  1  0
  7 29  1  0
  8 30  1  0
  8 31  1  0
  9 32  1  0
 10 33  1  0
 10 34  1  0
 11 35  1  1
 12 36  1  0
 12 37  1  0
 15 38  1  0
 16 39  1  0
 19 40  1  0
 21 41  1  0
 21 42  1  0
 23 43  1  0
 24 44  1  0
M  END
>  <meeko>  (14) 
{"is_sidechain": [false], "free_energy": -8.957, "intermolecular_energy": -10.84, "internal_energy": -1.093}

$$$$
seed-2301
     RDKit          3D

 44 47  0  0  0  0  0  0  0  0999 V2000
  134.4020  126.3790  119.9420 F   0  0  0  0  0  0  0  0  0  0  0  0
  134.1060  125.9500  121.1770 C   0  0  0  0  0  0  0  0  0  0  0  0
  133.0000  125.1320  121.3690 C   0  0  0  0  0  0  0  0  0  0  0  0
  132.6870  124.6850  122.6540 C   0  0  0  0  0  0  0  0  0  0  0  0
  133.4830  125.0540  123.7510 C   0  0  0  0  0  0  0  0  0  0  0  0
  133.1610  124.5950  125.1700 C   0  0  2  0  0  0  0  0  0  0  0  0
  133.5940  123.1340  125.4210 C   0  0  0  0  0  0  0  0  0  0  0  0
  132.4040  122.1880  125.5520 C   0  0  0  0  0  0  0  0  0  0  0  0
  131.5010  122.5760  126.6320 N   0  0  0  0  0  0  0  0  0  0  0  0
  131.3140  124.0210  126.7790 C   0  0  0  0  0  0  0  0  0  0  0  0
  131.6670  124.8260  125.5200 C   0  0  1  0  0  0  0  0  0  0  0  0
  131.3370  126.3180  125.7130 C   0  0  0  0  0  0  0  0  0  0  0  0
  129.9220  126.5080  125.7080 O   0  0  0  0  0  0  0  0  0  0  0  0
  129.4080  127.3590  124.7680 C   0  0  0  0  0  0  0  0  0  0  0  0
  130.1110  128.5740  124.6420 C   0  0  0  0  0  0  0  0  0  0  0  0
  129.7110  129.5500  123.7230 C   0  0  0  0  0  0  0  0  0  0  0  0
  128.6060  129.2770  122.9480 C   0  0  0  0  0  0  0  0  0  0  0  0
  127.9160  128.0940  123.0680 C   0  0  0  0  0  0  0  0  0  0  0  0
  128.2900  127.1140  123.9680 C   0  0  0  0  0  0  0  0  0  0  0  0
  126.8590  128.0230  122.2150 O   0  0  0  0  0  0  0  0  0  0  0  0
  126.9640  129.2970  121.5440 C   0  0  0  0  0  0  0  0  0  0  0  0
  128.0710  130.0970  122.0060 O   0  0  0  0  0  0  0  0  0  0  0  0
  134.5940  125.8860  123.5310 C   0  0  0  0  0  0  0  0  0  0  0  0
  134.9050  126.3320  122.2450 C   0  0  0  0  0  0  0  0  0  0  0  0
  132.3743  124.8381  120.5134 H   0  0  0  0  0  0  0  0  0  0  0  0
  131.8103  124.0389  122.8086 H   0  0  0  0  0  0  0  0  0  0  0  0
  133.7549  125.2203  125.8528 H   0  0  0  0  0  0  0  0  0  0  0  0
  134.2186  122.8012  124.5789 H   0  0  0  0  0  0  0  0  0  0  0  0
  134.1491  123.1075  126.3703 H   0  0  0  0  0  0  0  0  0  0  0  0
  131.8442  122.1912  124.6051 H   0  0  0  0  0  0  0  0  0  0  0  0
  132.7954  121.1868  125.7853 H   0  0  0  0  0  0  0  0  0  0  0  0
  130.6010  122.1110  126.5100 H   0  0  0  0  0  0  0  0  0  0  0  0
  130.2590  124.2102  127.0264 H   0  0  0  0  0  0  0  0  0  0  0  0
  132.0002  124.3524  127.5723 H   0  0  0  0  0  0  0  0  0  0  0  0
  131.0569  124.4783  124.6733 H   0  0  0  0  0  0  0  0  0  0  0  0
  131.7475  126.6608  126.6742 H   0  0  0  0  0  0  0  0  0  0  0  0
  131.7827  126.8965  124.8904 H   0  0  0  0  0  0  0  0  0  0  0  0
  130.9897  128.7582  125.2775 H   0  0  0  0  0  0  0  0  0  0  0  0
  130.2582  130.4990  123.6233 H   0  0  0  0  0  0  0  0  0  0  0  0
  127.7262  126.1732  124.0513 H   0  0  0  0  0  0  0  0  0  0  0  0
  127.0911  129.1145  120.4667 H   0  0  0  0  0  0  0  0  0  0  0  0
  126.0435  129.8574  121.7645 H   0  0  0  0  0  0  0  0  0  0  0  0
  135.2245  126.1887  124.3800 H   0  0  0  0  0  0  0  0  0  0  0  0
  135.7772  126.9816  122.0798 H   0  0  0  0  0  0  0  0  0  0  0  0
  1  2  1  0
  2  3  1  0
  3  4  2  0
  4  5  1  0
  5  6  1  0
  6  7  1  0
  7  8  1  0
  8  9  1  0
  9 10  1  0
 10 11  1  0
 11 12  1  0
 12 13  1  0
 13 14  1  0
 14 15  1  0
 15 16  2  0
 16 17  1  0
 17 18  2  0
 18 19  1  0
 18 20  1  0
 20 21  1  0
 21 22  1  0
  5 23  2  0
 23 24  1  0
 24  2  2  0
 11  6  1  0
 19 14  2  0
 22 17  1  0
  3 25  1  0
  4 26  1  0
  6 27  1  1
  7 28  1  0
  7 29  1  0
  8 30  1  0
  8 31  1  0
  9 32  1  0
 10 33  1  0
 10 34  1  0
 11 35  1  6
 12 36  1  0
 12 37  1  0
 15 38  1  0
 16 39  1  0
 19 40  1  0
 21 41  1  0
 21 42  1  0
 23 43  1  0
 24 44  1  0
M  END
>  <meeko>  (15) 
{"is_sidechain": [false], "free_energy": -8.81, "intermolecular_energy": -10.828, "internal_energy": -0.924}

$$$$
seed-2301
     RDKit          3D

 44 47  0  0  0  0  0  0  0  0999 V2000
  137.0940  120.7660  127.3310 F   0  0  0  0  0  0  0  0  0  0  0  0
  136.4980  121.2800  126.2470 C   0  0  0  0  0  0  0  0  0  0  0  0
  135.2660  120.7810  125.8430 C   0  0  0  0  0  0  0  0  0  0  0  0
  134.6430  121.3130  124.7120 C   0  0  0  0  0  0  0  0  0  0  0  0
  135.2500  122.3490  123.9840 C   0  0  0  0  0  0  0  0  0  0  0  0
  134.6020  122.9430  122.7370 C   0  0  2  0  0  0  0  0  0  0  0  0
  135.6120  123.1090  121.5800 C   0  0  0  0  0  0  0  0  0  0  0  0
  135.9430  124.5720  121.3020 C   0  0  0  0  0  0  0  0  0  0  0  0
  134.7570  125.3590  120.9740 N   0  0  0  0  0  0  0  0  0  0  0  0
  133.5620  125.0070  121.7430 C   0  0  0  0  0  0  0  0  0  0  0  0
  133.8610  124.2690  123.0560 C   0  0  1  0  0  0  0  0  0  0  0  0
  132.5680  124.0360  123.8600 C   0  0  0  0  0  0  0  0  0  0  0  0
  132.6070  124.7910  125.0720 O   0  0  0  0  0  0  0  0  0  0  0  0
  131.8210  125.9090  125.1380 C   0  0  0  0  0  0  0  0  0  0  0  0
  131.7210  126.4700  126.4270 C   0  0  0  0  0  0  0  0  0  0  0  0
  130.9550  127.6170  126.6600 C   0  0  0  0  0  0  0  0  0  0  0  0
  130.3030  128.1740  125.5830 C   0  0  0  0  0  0  0  0  0  0  0  0
  130.3960  127.6300  124.3240 C   0  0  0  0  0  0  0  0  0  0  0  0
  131.1460  126.4980  124.0660 C   0  0  0  0  0  0  0  0  0  0  0  0
  129.6780  128.3290  123.4040 O   0  0  0  0  0  0  0  0  0  0  0  0
  129.1240  129.3760  124.2290 C   0  0  0  0  0  0  0  0  0  0  0  0
  129.5170  129.2820  125.6130 O   0  0  0  0  0  0  0  0  0  0  0  0
  136.4970  122.8350  124.4120 C   0  0  0  0  0  0  0  0  0  0  0  0
  137.1190  122.3020  125.5420 C   0  0  0  0  0  0  0  0  0  0  0  0
  134.7840  119.9715  126.4107 H   0  0  0  0  0  0  0  0  0  0  0  0
  133.6689  120.9173  124.3888 H   0  0  0  0  0  0  0  0  0  0  0  0
  133.8455  122.2226  122.3923 H   0  0  0  0  0  0  0  0  0  0  0  0
  136.5403  122.5807  121.8430 H   0  0  0  0  0  0  0  0  0  0  0  0
  135.1533  122.6906  120.6719 H   0  0  0  0  0  0  0  0  0  0  0  0
  136.4167  125.0030  122.1963 H   0  0  0  0  0  0  0  0  0  0  0  0
  136.6173  124.6040  120.4335 H   0  0  0  0  0  0  0  0  0  0  0  0
  134.9660  126.3530  121.0740 H   0  0  0  0  0  0  0  0  0  0  0  0
  133.0191  125.9333  121.9824 H   0  0  0  0  0  0  0  0  0  0  0  0
  132.9717  124.3203  121.1185 H   0  0  0  0  0  0  0  0  0  0  0  0
  134.5155  124.8861  123.6891 H   0  0  0  0  0  0  0  0  0  0  0  0
  131.7028  124.3541  123.2597 H   0  0  0  0  0  0  0  0  0  0  0  0
  132.4794  122.9666  124.1019 H   0  0  0  0  0  0  0  0  0  0  0  0
  132.2548  125.9975  127.2647 H   0  0  0  0  0  0  0  0  0  0  0  0
  130.8766  128.0570  127.6651 H   0  0  0  0  0  0  0  0  0  0  0  0
  131.2092  126.0757  123.0522 H   0  0  0  0  0  0  0  0  0  0  0  0
  129.4622  130.3459  123.8355 H   0  0  0  0  0  0  0  0  0  0  0  0
  128.0294  129.2724  124.1942 H   0  0  0  0  0  0  0  0  0  0  0  0
  136.9879  123.6437  123.8508 H   0  0  0  0  0  0  0  0  0  0  0  0
  138.0945  122.6890  125.8717 H   0  0  0  0  0  0  0  0  0  0  0  0
  1  2  1  0
  2  3  1  0
  3  4  2  0
  4  5  1  0
  5  6  1  0
  6  7  1  0
  7  8  1  0
  8  9  1  0
  9 10  1  0
 10 11  1  0
 11 12  1  0
 12 13  1  0
 13 14  1  0
 14 15  1  0
 15 16  2  0
 16 17  1  0
 17 18  2  0
 18 19  1  0
 18 20  1  0
 20 21  1  0
 21 22  1  0
  5 23  2  0
 23 24  1  0
 24  2  2  0
 11  6  1  0
 19 14  2  0
 22 17  1  0
  3 25  1  0
  4 26  1  0
  6 27  1  6
  7 28  1  0
  7 29  1  0
  8 30  1  0
  8 31  1  0
  9 32  1  0
 10 33  1  0
 10 34  1  0
 11 35  1  1
 12 36  1  0
 12 37  1  0
 15 38  1  0
 16 39  1  0
 19 40  1  0
 21 41  1  0
 21 42  1  0
 23 43  1  0
 24 44  1  0
M  END
>  <meeko>  (16) 
{"is_sidechain": [false], "free_energy": -8.709, "intermolecular_energy": -10.888, "internal_energy": -0.738}

$$$$
seed-2301
     RDKit          3D

 44 47  0  0  0  0  0  0  0  0999 V2000
  135.6520  124.0150  119.0440 F   0  0  0  0  0  0  0  0  0  0  0  0
  135.7020  123.9180  120.3790 C   0  0  0  0  0  0  0  0  0  0  0  0
  136.1060  125.0160  121.1280 C   0  0  0  0  0  0  0  0  0  0  0  0
  136.1610  124.9180  122.5210 C   0  0  0  0  0  0  0  0  0  0  0  0
  135.8100  123.7220  123.1670 C   0  0  0  0  0  0  0  0  0  0  0  0
  135.8730  123.5780  124.6840 C   0  0  2  0  0  0  0  0  0  0  0  0
  136.6220  122.2980  125.1160 C   0  0  0  0  0  0  0  0  0  0  0  0
  135.6880  121.2510  125.7160 C   0  0  0  0  0  0  0  0  0  0  0  0
  134.9600  121.7540  126.8770 N   0  0  0  0  0  0  0  0  0  0  0  0
  134.5290  123.1500  126.7680 C   0  0  0  0  0  0  0  0  0  0  0  0
  134.4620  123.6690  125.3240 C   0  0  1  0  0  0  0  0  0  0  0  0
  133.8930  125.1000  125.2820 C   0  0  0  0  0  0  0  0  0  0  0  0
  132.9150  125.2650  126.3100 O   0  0  0  0  0  0  0  0  0  0  0  0
  131.7450  125.8850  125.9650 C   0  0  0  0  0  0  0  0  0  0  0  0
  131.0540  126.4610  127.0510 C   0  0  0  0  0  0  0  0  0  0  0  0
  129.8410  127.1320  126.8640 C   0  0  0  0  0  0  0  0  0  0  0  0
  129.3490  127.2070  125.5800 C   0  0  0  0  0  0  0  0  0  0  0  0
  130.0180  126.6460  124.5180 C   0  0  0  0  0  0  0  0  0  0  0  0
  131.2170  125.9780  124.6750 C   0  0  0  0  0  0  0  0  0  0  0  0
  129.3650  126.8320  123.3390 O   0  0  0  0  0  0  0  0  0  0  0  0
  128.2090  127.5740  123.7820 C   0  0  0  0  0  0  0  0  0  0  0  0
  128.1940  127.8150  125.2040 O   0  0  0  0  0  0  0  0  0  0  0  0
  135.4080  122.6250  122.3850 C   0  0  0  0  0  0  0  0  0  0  0  0
  135.3540  122.7240  120.9940 C   0  0  0  0  0  0  0  0  0  0  0  0
  136.3808  125.9564  120.6279 H   0  0  0  0  0  0  0  0  0  0  0  0
  136.4821  125.7854  123.1164 H   0  0  0  0  0  0  0  0  0  0  0  0
  136.4586  124.4278  125.0647 H   0  0  0  0  0  0  0  0  0  0  0  0
  137.1183  121.8650  124.2350 H   0  0  0  0  0  0  0  0  0  0  0  0
  137.3498  122.5810  125.8907 H   0  0  0  0  0  0  0  0  0  0  0  0
  134.9614  120.9449  124.9490 H   0  0  0  0  0  0  0  0  0  0  0  0
  136.3047  120.4030  126.0487 H   0  0  0  0  0  0  0  0  0  0  0  0
  134.1610  121.1490  127.0700 H   0  0  0  0  0  0  0  0  0  0  0  0
  133.5280  123.2395  127.2151 H   0  0  0  0  0  0  0  0  0  0  0  0
  135.2810  123.7585  127.2917 H   0  0  0  0  0  0  0  0  0  0  0  0
  133.7757  123.0427  124.7352 H   0  0  0  0  0  0  0  0  0  0  0  0
  134.7089  125.8215  125.4357 H   0  0  0  0  0  0  0  0  0  0  0  0
  133.4222  125.2738  124.3031 H   0  0  0  0  0  0  0  0  0  0  0  0
  131.4765  126.3812  128.0635 H   0  0  0  0  0  0  0  0  0  0  0  0
  129.3010  127.5824  127.7099 H   0  0  0  0  0  0  0  0  0  0  0  0
  131.7381  125.5345  123.8137 H   0  0  0  0  0  0  0  0  0  0  0  0
  128.1976  128.5442  123.2637 H   0  0  0  0  0  0  0  0  0  0  0  0
  127.3229  126.9664  123.5460 H   0  0  0  0  0  0  0  0  0  0  0  0
  135.1332  121.6790  122.8745 H   0  0  0  0  0  0  0  0  0  0  0  0
  135.0377  121.8613  120.3893 H   0  0  0  0  0  0  0  0  0  0  0  0
  1  2  1  0
  2  3  1  0
  3  4  2  0
  4  5  1  0
  5  6  1  0
  6  7  1  0
  7  8  1  0
  8  9  1  0
  9 10  1  0
 10 11  1  0
 11 12  1  0
 12 13  1  0
 13 14  1  0
 14 15  1  0
 15 16  2  0
 16 17  1  0
 17 18  2  0
 18 19  1  0
 18 20  1  0
 20 21  1  0
 21 22  1  0
  5 23  2  0
 23 24  1  0
 24  2  2  0
 11  6  1  0
 19 14  2  0
 22 17  1  0
  3 25  1  0
  4 26  1  0
  6 27  1  1
  7 28  1  0
  7 29  1  0
  8 30  1  0
  8 31  1  0
  9 32  1  0
 10 33  1  0
 10 34  1  0
 11 35  1  6
 12 36  1  0
 12 37  1  0
 15 38  1  0
 16 39  1  0
 19 40  1  0
 21 41  1  0
 21 42  1  0
 23 43  1  0
 24 44  1  0
M  END
>  <meeko>  (17) 
{"is_sidechain": [false], "free_energy": -8.696, "intermolecular_energy": -10.895, "internal_energy": -0.715}

$$$$
seed-2301
     RDKit          3D

 44 47  0  0  0  0  0  0  0  0999 V2000
  129.3670  124.8740  127.0320 F   0  0  0  0  0  0  0  0  0  0  0  0
  130.5860  124.6300  126.5320 C   0  0  0  0  0  0  0  0  0  0  0  0
  130.9760  123.3190  126.2920 C   0  0  0  0  0  0  0  0  0  0  0  0
  132.2470  123.0610  125.7730 C   0  0  0  0  0  0  0  0  0  0  0  0
  133.1300  124.1150  125.4910 C   0  0  0  0  0  0  0  0  0  0  0  0
  134.5290  123.8670  124.9360 C   0  0  2  0  0  0  0  0  0  0  0  0
  135.5930  123.7900  126.0530 C   0  0  0  0  0  0  0  0  0  0  0  0
  136.5240  124.9980  126.0550 C   0  0  0  0  0  0  0  0  0  0  0  0
  137.2240  125.1640  124.7850 N   0  0  0  0  0  0  0  0  0  0  0  0
  136.4190  124.8560  123.6010 C   0  0  0  0  0  0  0  0  0  0  0  0
  134.9040  124.9090  123.8480 C   0  0  1  0  0  0  0  0  0  0  0  0
  134.1270  124.6890  122.5360 C   0  0  0  0  0  0  0  0  0  0  0  0
  134.9120  125.1260  121.4270 O   0  0  0  0  0  0  0  0  0  0  0  0
  134.8610  124.3700  120.2880 C   0  0  0  0  0  0  0  0  0  0  0  0
  134.3870  125.0620  119.1550 C   0  0  0  0  0  0  0  0  0  0  0  0
  134.2760  124.4280  117.9130 C   0  0  0  0  0  0  0  0  0  0  0  0
  134.6460  123.1040  117.8410 C   0  0  0  0  0  0  0  0  0  0  0  0
  135.1080  122.4240  118.9430 C   0  0  0  0  0  0  0  0  0  0  0  0
  135.2270  123.0260  120.1810 C   0  0  0  0  0  0  0  0  0  0  0  0
  135.4190  121.1300  118.6600 O   0  0  0  0  0  0  0  0  0  0  0  0
  135.1000  121.0750  117.2530 C   0  0  0  0  0  0  0  0  0  0  0  0
  134.6090  122.3250  116.7280 O   0  0  0  0  0  0  0  0  0  0  0  0
  132.7120  125.4330  125.7460 C   0  0  0  0  0  0  0  0  0  0  0  0
  131.4420  125.6890  126.2650 C   0  0  0  0  0  0  0  0  0  0  0  0
  130.2881  122.4886  126.5093 H   0  0  0  0  0  0  0  0  0  0  0  0
  132.5584  122.0231  125.5837 H   0  0  0  0  0  0  0  0  0  0  0  0
  134.5123  122.8804  124.4499 H   0  0  0  0  0  0  0  0  0  0  0  0
  135.0811  123.7372  127.0252 H   0  0  0  0  0  0  0  0  0  0  0  0
  136.2060  122.8951  125.8705 H   0  0  0  0  0  0  0  0  0  0  0  0
  135.9289  125.9021  126.2510 H   0  0  0  0  0  0  0  0  0  0  0  0
  137.2812  124.8362  126.8363 H   0  0  0  0  0  0  0  0  0  0  0  0
  137.6030  126.1090  124.7230 H   0  0  0  0  0  0  0  0  0  0  0  0
  136.6674  125.5836  122.8143 H   0  0  0  0  0  0  0  0  0  0  0  0
  136.6595  123.8225  123.3112 H   0  0  0  0  0  0  0  0  0  0  0  0
  134.6212  125.9069  124.2145 H   0  0  0  0  0  0  0  0  0  0  0  0
  133.8990  123.6189  122.4223 H   0  0  0  0  0  0  0  0  0  0  0  0
  133.1918  125.2673  122.5678 H   0  0  0  0  0  0  0  0  0  0  0  0
  134.0992  126.1195  119.2492 H   0  0  0  0  0  0  0  0  0  0  0  0
  133.9072  124.9668  117.0278 H   0  0  0  0  0  0  0  0  0  0  0  0
  135.5973  122.4662  121.0525 H   0  0  0  0  0  0  0  0  0  0  0  0
  136.0094  120.7976  116.6998 H   0  0  0  0  0  0  0  0  0  0  0  0
  134.2967  120.3335  117.1308 H   0  0  0  0  0  0  0  0  0  0  0  0
  133.3928  126.2707  125.5343 H   0  0  0  0  0  0  0  0  0  0  0  0
  131.1219  126.7230  126.4610 H   0  0  0  0  0  0  0  0  0  0  0  0
  1  2  1  0
  2  3  1  0
  3  4  2  0
  4  5  1  0
  5  6  1  0
  6  7  1  0
  7  8  1  0
  8  9  1  0
  9 10  1  0
 10 11  1  0
 11 12  1  0
 12 13  1  0
 13 14  1  0
 14 15  1  0
 15 16  2  0
 16 17  1  0
 17 18  2  0
 18 19  1  0
 18 20  1  0
 20 21  1  0
 21 22  1  0
  5 23  2  0
 23 24  1  0
 24  2  2  0
 11  6  1  0
 19 14  2  0
 22 17  1  0
  3 25  1  0
  4 26  1  0
  6 27  1  6
  7 28  1  0
  7 29  1  0
  8 30  1  0
  8 31  1  0
  9 32  1  0
 10 33  1  0
 10 34  1  0
 11 35  1  1
 12 36  1  0
 12 37  1  0
 15 38  1  0
 16 39  1  0
 19 40  1  0
 21 41  1  0
 21 42  1  0
 23 43  1  0
 24 44  1  0
M  END
>  <meeko>  (18) 
{"is_sidechain": [false], "free_energy": -8.569, "intermolecular_energy": -10.704, "internal_energy": -0.749}

$$$$
seed-2301
     RDKit          3D

 44 47  0  0  0  0  0  0  0  0999 V2000
  132.7160  120.4140  127.4140 F   0  0  0  0  0  0  0  0  0  0  0  0
  132.9980  121.2930  126.4430 C   0  0  0  0  0  0  0  0  0  0  0  0
  134.2970  121.3810  125.9580 C   0  0  0  0  0  0  0  0  0  0  0  0
  134.5960  122.2980  124.9480 C   0  0  0  0  0  0  0  0  0  0  0  0
  133.5940  123.1270  124.4170 C   0  0  0  0  0  0  0  0  0  0  0  0
  133.8890  124.1470  123.3230 C   0  0  2  0  0  0  0  0  0  0  0  0
  134.6200  123.5150  122.1180 C   0  0  0  0  0  0  0  0  0  0  0  0
  136.0730  123.9670  122.0160 C   0  0  0  0  0  0  0  0  0  0  0  0
  136.1980  125.4180  121.9010 N   0  0  0  0  0  0  0  0  0  0  0  0
  135.2450  126.1770  122.7130 C   0  0  0  0  0  0  0  0  0  0  0  0
  134.6490  125.3800  123.8820 C   0  0  1  0  0  0  0  0  0  0  0  0
  133.7490  126.2750  124.7540 C   0  0  0  0  0  0  0  0  0  0  0  0
  132.4980  126.4910  124.1000 O   0  0  0  0  0  0  0  0  0  0  0  0
  131.3790  126.5250  124.8860 C   0  0  0  0  0  0  0  0  0  0  0  0
  130.2010  126.8860  124.2010 C   0  0  0  0  0  0  0  0  0  0  0  0
  128.9730  126.9650  124.8650 C   0  0  0  0  0  0  0  0  0  0  0  0
  128.9590  126.6770  126.2110 C   0  0  0  0  0  0  0  0  0  0  0  0
  130.1050  126.3250  126.8840 C   0  0  0  0  0  0  0  0  0  0  0  0
  131.3310  126.2400  126.2530 C   0  0  0  0  0  0  0  0  0  0  0  0
  129.8760  126.0830  128.2030 O   0  0  0  0  0  0  0  0  0  0  0  0
  128.4550  126.3220  128.2810 C   0  0  0  0  0  0  0  0  0  0  0  0
  127.8670  126.7000  127.0200 O   0  0  0  0  0  0  0  0  0  0  0  0
  132.2880  123.0200  124.9270 C   0  0  0  0  0  0  0  0  0  0  0  0
  131.9920  122.1040  125.9380 C   0  0  0  0  0  0  0  0  0  0  0  0
  135.0854  120.7321  126.3672 H   0  0  0  0  0  0  0  0  0  0  0  0
  135.6246  122.3717  124.5651 H   0  0  0  0  0  0  0  0  0  0  0  0
  132.9190  124.5052  122.9478 H   0  0  0  0  0  0  0  0  0  0  0  0
  134.5974  122.4205  122.2257 H   0  0  0  0  0  0  0  0  0  0  0  0
  134.1027  123.8412  121.2037 H   0  0  0  0  0  0  0  0  0  0  0  0
  136.6099  123.6365  122.9174 H   0  0  0  0  0  0  0  0  0  0  0  0
  136.5001  123.5204  121.1060 H   0  0  0  0  0  0  0  0  0  0  0  0
  137.1550  125.6980  122.1190 H   0  0  0  0  0  0  0  0  0  0  0  0
  135.7628  127.0570  123.1223 H   0  0  0  0  0  0  0  0  0  0  0  0
  134.4082  126.4481  122.0524 H   0  0  0  0  0  0  0  0  0  0  0  0
  135.4567  125.0194  124.5360 H   0  0  0  0  0  0  0  0  0  0  0  0
  133.5742  125.7832  125.7223 H   0  0  0  0  0  0  0  0  0  0  0  0
  134.2463  127.2432  124.9129 H   0  0  0  0  0  0  0  0  0  0  0  0
  130.2487  127.1095  123.1250 H   0  0  0  0  0  0  0  0  0  0  0  0
  128.0529  127.2466  124.3319 H   0  0  0  0  0  0  0  0  0  0  0  0
  132.2380  125.9577  126.8076 H   0  0  0  0  0  0  0  0  0  0  0  0
  127.9655  125.4015  128.6318 H   0  0  0  0  0  0  0  0  0  0  0  0
  128.3051  127.1631  128.9738 H   0  0  0  0  0  0  0  0  0  0  0  0
  131.4919  123.6642  124.5255 H   0  0  0  0  0  0  0  0  0  0  0  0
  130.9678  122.0257  126.3317 H   0  0  0  0  0  0  0  0  0  0  0  0
  1  2  1  0
  2  3  1  0
  3  4  2  0
  4  5  1  0
  5  6  1  0
  6  7  1  0
  7  8  1  0
  8  9  1  0
  9 10  1  0
 10 11  1  0
 11 12  1  0
 12 13  1  0
 13 14  1  0
 14 15  1  0
 15 16  2  0
 16 17  1  0
 17 18  2  0
 18 19  1  0
 18 20  1  0
 20 21  1  0
 21 22  1  0
  5 23  2  0
 23 24  1  0
 24  2  2  0
 11  6  1  0
 19 14  2  0
 22 17  1  0
  3 25  1  0
  4 26  1  0
  6 27  1  6
  7 28  1  0
  7 29  1  0
  8 30  1  0
  8 31  1  0
  9 32  1  0
 10 33  1  0
 10 34  1  0
 11 35  1  1
 12 36  1  0
 12 37  1  0
 15 38  1  0
 16 39  1  0
 19 40  1  0
 21 41  1  0
 21 42  1  0
 23 43  1  0
 24 44  1  0
M  END
>  <meeko>  (19) 
{"is_sidechain": [false], "free_energy": -8.42, "intermolecular_energy": -10.101, "internal_energy": -1.17}

$$$$
seed-2301
     RDKit          3D

 44 47  0  0  0  0  0  0  0  0999 V2000
  129.7030  128.7980  125.9120 F   0  0  0  0  0  0  0  0  0  0  0  0
  130.4460  127.7420  125.5530 C   0  0  0  0  0  0  0  0  0  0  0  0
  130.5090  127.3740  124.2150 C   0  0  0  0  0  0  0  0  0  0  0  0
  131.2800  126.2730  123.8370 C   0  0  0  0  0  0  0  0  0  0  0  0
  131.9940  125.5390  124.7980 C   0  0  0  0  0  0  0  0  0  0  0  0
  132.8350  124.3230  124.4210 C   0  0  2  0  0  0  0  0  0  0  0  0
  132.5310  123.1040  125.3190 C   0  0  0  0  0  0  0  0  0  0  0  0
  133.6800  122.7800  126.2690 C   0  0  0  0  0  0  0  0  0  0  0  0
  134.9290  122.5110  125.5610 N   0  0  0  0  0  0  0  0  0  0  0  0
  135.1580  123.3580  124.3890 C   0  0  0  0  0  0  0  0  0  0  0  0
  134.3490  124.6630  124.3950 C   0  0  1  0  0  0  0  0  0  0  0  0
  134.7290  125.5490  123.1940 C   0  0  0  0  0  0  0  0  0  0  0  0
  135.7900  124.9410  122.4570 O   0  0  0  0  0  0  0  0  0  0  0  0
  135.4880  124.4520  121.2150 C   0  0  0  0  0  0  0  0  0  0  0  0
  135.9320  123.1330  120.9900 C   0  0  0  0  0  0  0  0  0  0  0  0
  135.7010  122.4890  119.7700 C   0  0  0  0  0  0  0  0  0  0  0  0
  135.0240  123.1940  118.7990 C   0  0  0  0  0  0  0  0  0  0  0  0
  134.5910  124.4810  119.0130 C   0  0  0  0  0  0  0  0  0  0  0  0
  134.8060  125.1390  120.2090 C   0  0  0  0  0  0  0  0  0  0  0  0
  133.9470  124.9960  117.9310 O   0  0  0  0  0  0  0  0  0  0  0  0
  134.0250  123.8850  117.0130 C   0  0  0  0  0  0  0  0  0  0  0  0
  134.7080  122.7380  117.5590 O   0  0  0  0  0  0  0  0  0  0  0  0
  131.9110  125.9290  126.1460 C   0  0  0  0  0  0  0  0  0  0  0  0
  131.1390  127.0300  126.5220 C   0  0  0  0  0  0  0  0  0  0  0  0
  129.9544  127.9470  123.4573 H   0  0  0  0  0  0  0  0  0  0  0  0
  131.3285  125.9783  122.7783 H   0  0  0  0  0  0  0  0  0  0  0  0
  132.5483  124.0374  123.3981 H   0  0  0  0  0  0  0  0  0  0  0  0
  131.6310  123.3191  125.9137 H   0  0  0  0  0  0  0  0  0  0  0  0
  132.3825  122.2333  124.6633 H   0  0  0  0  0  0  0  0  0  0  0  0
  133.8332  123.6358  126.9429 H   0  0  0  0  0  0  0  0  0  0  0  0
  133.4082  121.8715  126.8265 H   0  0  0  0  0  0  0  0  0  0  0  0
  135.7130  122.5810  126.2100 H   0  0  0  0  0  0  0  0  0  0  0  0
  136.2272  123.6138  124.3505 H   0  0  0  0  0  0  0  0  0  0  0  0
  134.8286  122.7830  123.5110 H   0  0  0  0  0  0  0  0  0  0  0  0
  134.5868  125.2443  125.2981 H   0  0  0  0  0  0  0  0  0  0  0  0
  133.8535  125.6708  122.5393 H   0  0  0  0  0  0  0  0  0  0  0  0
  135.0598  126.5322  123.5600 H   0  0  0  0  0  0  0  0  0  0  0  0
  136.4698  122.6007  121.7883 H   0  0  0  0  0  0  0  0  0  0  0  0
  136.0464  121.4598  119.5927 H   0  0  0  0  0  0  0  0  0  0  0  0
  134.4519  126.1690  120.3632 H   0  0  0  0  0  0  0  0  0  0  0  0
  133.0023  123.5850  116.7409 H   0  0  0  0  0  0  0  0  0  0  0  0
  134.6045  124.2237  116.1416 H   0  0  0  0  0  0  0  0  0  0  0  0
  132.4595  125.3613  126.9120 H   0  0  0  0  0  0  0  0  0  0  0  0
  131.0805  127.3308  127.5784 H   0  0  0  0  0  0  0  0  0  0  0  0
  1  2  1  0
  2  3  1  0
  3  4  2  0
  4  5  1  0
  5  6  1  0
  6  7  1  0
  7  8  1  0
  8  9  1  0
  9 10  1  0
 10 11  1  0
 11 12  1  0
 12 13  1  0
 13 14  1  0
 14 15  1  0
 15 16  2  0
 16 17  1  0
 17 18  2  0
 18 19  1  0
 18 20  1  0
 20 21  1  0
 21 22  1  0
  5 23  2  0
 23 24  1  0
 24  2  2  0
 11  6  1  0
 19 14  2  0
 22 17  1  0
  3 25  1  0
  4 26  1  0
  6 27  1  6
  7 28  1  0
  7 29  1  0
  8 30  1  0
  8 31  1  0
  9 32  1  0
 10 33  1  0
 10 34  1  0
 11 35  1  1
 12 36  1  0
 12 37  1  0
 15 38  1  0
 16 39  1  0
 19 40  1  0
 21 41  1  0
 21 42  1  0
 23 43  1  0
 24 44  1  0
M  END
>  <meeko>  (20) 
{"is_sidechain": [false], "free_energy": -8.351, "intermolecular_energy": -10.587, "internal_energy": -0.597}

$$$$
