seed-2303
     RDKit          3D

 44 47  0  0  0  0  0  0  0  0999 V2000
  133.4590  120.7140  126.6720 F   0  0  0  0  0  0  0  0  0  0  0  0
  134.1310  121.7030  126.0660 C   0  0  0  0  0  0  0  0  0  0  0  0
  135.0370  121.3970  125.0590 C   0  0  0  0  0  0  0  0  0  0  0  0
  135.7410  122.4240  124.4280 C   0  0  0  0  0  0  0  0  0  0  0  0
  135.5370  123.7630  124.8010 C   0  0  0  0  0  0  0  0  0  0  0  0
  136.2990  124.9080  124.1410 C   0  0  2  0  0  0  0  0  0  0  0  0
  137.3130  125.5640  125.1040 C   0  0  0  0  0  0  0  0  0  0  0  0
  136.8890  126.9660  125.5290 C   0  0  0  0  0  0  0  0  0  0  0  0
  136.7110  127.8630  124.3900 N   0  0  0  0  0  0  0  0  0  0  0  0
  136.1120  127.2380  123.2100 C   0  0  0  0  0  0  0  0  0  0  0  0
  135.3330  125.9500  123.5160 C   0  0  1  0  0  0  0  0  0  0  0  0
  134.6380  125.4160  122.2500 C   0  0  0  0  0  0  0  0  0  0  0  0
  135.5730  125.3500  121.1720 O   0  0  0  0  0  0  0  0  0  0  0  0
  135.2720  124.5130  120.1330 C   0  0  0  0  0  0  0  0  0  0  0  0
  134.5360  125.1210  119.0950 C   0  0  0  0  0  0  0  0  0  0  0  0
  134.1510  124.3980  117.9610 C   0  0  0  0  0  0  0  0  0  0  0  0
  134.5170  123.0730  117.8990 C   0  0  0  0  0  0  0  0  0  0  0  0
  135.2340  122.4750  118.9080 C   0  0  0  0  0  0  0  0  0  0  0  0
  135.6270  123.1650  120.0390 C   0  0  0  0  0  0  0  0  0  0  0  0
  135.4930  121.1640  118.6520 O   0  0  0  0  0  0  0  0  0  0  0  0
  134.8570  121.0070  117.3660 C   0  0  0  0  0  0  0  0  0  0  0  0
  134.2360  122.2150  116.8820 O   0  0  0  0  0  0  0  0  0  0  0  0
  134.6170  124.0460  125.8260 C   0  0  0  0  0  0  0  0  0  0  0  0
  133.9150  123.0170  126.4560 C   0  0  0  0  0  0  0  0  0  0  0  0
  135.1990  120.3508  124.7602 H   0  0  0  0  0  0  0  0  0  0  0  0
  136.4613  122.1830  123.6323 H   0  0  0  0  0  0  0  0  0  0  0  0
  136.8851  124.4730  123.3180 H   0  0  0  0  0  0  0  0  0  0  0  0
  137.4048  124.9354  126.0020 H   0  0  0  0  0  0  0  0  0  0  0  0
  138.2722  125.6507  124.5725 H   0  0  0  0  0  0  0  0  0  0  0  0
  135.9373  126.8966  126.0762 H   0  0  0  0  0  0  0  0  0  0  0  0
  137.6879  127.3809  126.1611 H   0  0  0  0  0  0  0  0  0  0  0  0
  136.1680  128.6780  124.6770 H   0  0  0  0  0  0  0  0  0  0  0  0
  135.4213  127.9593  122.7490 H   0  0  0  0  0  0  0  0  0  0  0  0
  136.9397  126.9594  122.5413 H   0  0  0  0  0  0  0  0  0  0  0  0
  134.5355  126.1612  124.2437 H   0  0  0  0  0  0  0  0  0  0  0  0
  134.2400  124.4101  122.4494 H   0  0  0  0  0  0  0  0  0  0  0  0
  133.8164  126.0938  121.9752 H   0  0  0  0  0  0  0  0  0  0  0  0
  134.2598  126.1825  119.1785 H   0  0  0  0  0  0  0  0  0  0  0  0
  133.5776  124.8706  117.1499 H   0  0  0  0  0  0  0  0  0  0  0  0
  136.1994  122.6702  120.8374 H   0  0  0  0  0  0  0  0  0  0  0  0
  135.6177  120.6901  116.6374 H   0  0  0  0  0  0  0  0  0  0  0  0
  134.0599  120.2588  117.4876 H   0  0  0  0  0  0  0  0  0  0  0  0
  134.4488  125.0884  126.1344 H   0  0  0  0  0  0  0  0  0  0  0  0
  133.1956  123.2462  127.2560 H   0  0  0  0  0  0  0  0  0  0  0  0
  1  2  1  0
  2  3  1  0
  3  4  2  0
  4  5  1  0
  5  6  1  0
  6  7  1  0
  7  8  1  0
  8  9  1  0
  9 10  1  0
 10 11  1  0
 11 12  1  0
 12 13  1  0
 13 14  1  0
 14 15  1  0
 15 16  2  0
 16 17  1  0
 17 18  2  0
 18 19  1  0
 18 20  1  0
 20 21  1  0
 21 22  1  0
  5 23  2  0
 23 24  1  0
 24  2  2  0
 11  6  1  0
 19 14  2  0
 22 17  1  0
  3 25  1  0
  4 26  1  0
  6 27  1  6
  7 28  1  0
  7 29  1  0
  8 30  1  0
  8 31  1  0
  9 32  1  0
 10 33  1  0
 10 34  1  0
 11 35  1  1
 12 36  1  0
 12 37  1  0
 15 38  1  0
 16 39  1  0
 19 40  1  0
 21 41  1  0
 21 42  1  0
 23 43  1  0
 24 44  1  0
M  END
>  <meeko>  (1) 
{"is_sidechain": [false], "free_energy": -10.547, "intermolecular_energy": -13.013, "internal_energy": -0.923}

$$$$
seed-2303
     RDKit          3D

 44 47  0  0  0  0  0  0  0  0999 V2000
  133.9230  120.7700  127.1850 F   0  0  0  0  0  0  0  0  0  0  0  0
  134.4790  121.7400  126.4450 C   0  0  0  0  0  0  0  0  0  0  0  0
  135.1320  121.4100  125.2650 C   0  0  0  0  0  0  0  0  0  0  0  0
  135.7140  122.4180  124.4930 C   0  0  0  0  0  0  0  0  0  0  0  0
  135.6400  123.7600  124.9000 C   0  0  0  0  0  0  0  0  0  0  0  0
  136.2760  124.8840  124.0880 C   0  0  2  0  0  0  0  0  0  0  0  0
  137.2940  125.6980  124.9170 C   0  0  0  0  0  0  0  0  0  0  0  0
  136.7930  127.1030  125.2360 C   0  0  0  0  0  0  0  0  0  0  0  0
  136.4850  127.8710  124.0320 N   0  0  0  0  0  0  0  0  0  0  0  0
  135.8640  127.0940  122.9570 C   0  0  0  0  0  0  0  0  0  0  0  0
  135.2020  125.7930  123.4320 C   0  0  1  0  0  0  0  0  0  0  0  0
  134.4750  125.0910  122.2690 C   0  0  0  0  0  0  0  0  0  0  0  0
  133.0790  125.3880  122.3190 O   0  0  0  0  0  0  0  0  0  0  0  0
  132.3910  124.9750  123.4270 C   0  0  0  0  0  0  0  0  0  0  0  0
  132.2310  123.5770  123.5210 C   0  0  0  0  0  0  0  0  0  0  0  0
  131.5510  122.9970  124.5960 C   0  0  0  0  0  0  0  0  0  0  0  0
  131.0440  123.8420  125.5570 C   0  0  0  0  0  0  0  0  0  0  0  0
  131.1970  125.2060  125.4700 C   0  0  0  0  0  0  0  0  0  0  0  0
  131.8640  125.8050  124.4190 C   0  0  0  0  0  0  0  0  0  0  0  0
  130.6240  125.8580  126.5180 O   0  0  0  0  0  0  0  0  0  0  0  0
  130.0950  124.7480  127.2740 C   0  0  0  0  0  0  0  0  0  0  0  0
  130.3590  123.4660  126.6690 O   0  0  0  0  0  0  0  0  0  0  0  0
  134.9760  124.0680  126.1010 C   0  0  0  0  0  0  0  0  0  0  0  0
  134.3960  123.0580  126.8710 C   0  0  0  0  0  0  0  0  0  0  0  0
  135.1906  120.3607  124.9400 H   0  0  0  0  0  0  0  0  0  0  0  0
  136.2343  122.1587  123.5591 H   0  0  0  0  0  0  0  0  0  0  0  0
  136.8430  124.4103  123.2730 H   0  0  0  0  0  0  0  0  0  0  0  0
  137.4845  125.1679  125.8618 H   0  0  0  0  0  0  0  0  0  0  0  0
  138.2115  125.7969  124.3183 H   0  0  0  0  0  0  0  0  0  0  0  0
  135.8816  127.0229  125.8467 H   0  0  0  0  0  0  0  0  0  0  0  0
  137.5940  127.6305  125.7746 H   0  0  0  0  0  0  0  0  0  0  0  0
  135.9010  128.6710  124.2760 H   0  0  0  0  0  0  0  0  0  0  0  0
  135.0957  127.7185  122.4776 H   0  0  0  0  0  0  0  0  0  0  0  0
  136.6689  126.8080  122.2639 H   0  0  0  0  0  0  0  0  0  0  0  0
  134.4355  126.0209  124.1873 H   0  0  0  0  0  0  0  0  0  0  0  0
  134.8892  125.4447  121.3133 H   0  0  0  0  0  0  0  0  0  0  0  0
  134.6175  124.0038  122.3562 H   0  0  0  0  0  0  0  0  0  0  0  0
  132.6487  122.9314  122.7344 H   0  0  0  0  0  0  0  0  0  0  0  0
  131.4259  121.9067  124.6710 H   0  0  0  0  0  0  0  0  0  0  0  0
  131.9762  126.8979  124.3652 H   0  0  0  0  0  0  0  0  0  0  0  0
  130.5486  124.7608  128.2761 H   0  0  0  0  0  0  0  0  0  0  0  0
  129.0025  124.8712  127.3108 H   0  0  0  0  0  0  0  0  0  0  0  0
  134.9131  125.1137  126.4366 H   0  0  0  0  0  0  0  0  0  0  0  0
  133.8769  123.3053  127.8087 H   0  0  0  0  0  0  0  0  0  0  0  0
  1  2  1  0
  2  3  1  0
  3  4  2  0
  4  5  1  0
  5  6  1  0
  6  7  1  0
  7  8  1  0
  8  9  1  0
  9 10  1  0
 10 11  1  0
 11 12  1  0
 12 13  1  0
 13 14  1  0
 14 15  1  0
 15 16  2  0
 16 17  1  0
 17 18  2  0
 18 19  1  0
 18 20  1  0
 20 21  1  0
 21 22  1  0
  5 23  2  0
 23 24  1  0
 24  2  2  0
 11  6  1  0
 19 14  2  0
 22 17  1  0
  3 25  1  0
  4 26  1  0
  6 27  1  6
  7 28  1  0
  7 29  1  0
  8 30  1  0
  8 31  1  0
  9 32  1  0
 10 33  1  0
 10 34  1  0
 11 35  1  1
 12 36  1  0
 12 37  1  0
 15 38  1  0
 16 39  1  0
 19 40  1  0
 21 41  1  0
 21 42  1  0
 23 43  1  0
 24 44  1  0
M  END
>  <meeko>  (2) 
{"is_sidechain": [false], "free_energy": -9.985, "intermolecular_energy": -11.231, "internal_energy": -2.012}

$$$$
seed-2303
     RDKit          3D

 44 47  0  0  0  0  0  0  0  0999 V2000
  131.2930  126.8730  123.3700 F   0  0  0  0  0  0  0  0  0  0  0  0
  132.0130  125.8140  123.7660 C   0  0  0  0  0  0  0  0  0  0  0  0
  132.8690  125.9370  124.8530 C   0  0  0  0  0  0  0  0  0  0  0  0
  133.6220  124.8370  125.2670 C   0  0  0  0  0  0  0  0  0  0  0  0
  133.5190  123.6080  124.5950 C   0  0  0  0  0  0  0  0  0  0  0  0
  134.3370  122.3900  125.0120 C   0  0  2  0  0  0  0  0  0  0  0  0
  133.9050  121.8430  126.3900 C   0  0  0  0  0  0  0  0  0  0  0  0
  134.9520  122.0940  127.4700 C   0  0  0  0  0  0  0  0  0  0  0  0
  136.2450  121.5000  127.1410 N   0  0  0  0  0  0  0  0  0  0  0  0
  136.6110  121.5850  125.7260 C   0  0  0  0  0  0  0  0  0  0  0  0
  135.8610  122.6790  124.9530 C   0  0  1  0  0  0  0  0  0  0  0  0
  136.3810  122.7840  123.5070 C   0  0  0  0  0  0  0  0  0  0  0  0
  136.2130  124.1170  123.0250 O   0  0  0  0  0  0  0  0  0  0  0  0
  135.7180  124.2670  121.7580 C   0  0  0  0  0  0  0  0  0  0  0  0
  135.0930  125.5080  121.5230 C   0  0  0  0  0  0  0  0  0  0  0  0
  134.5370  125.8150  120.2770 C   0  0  0  0  0  0  0  0  0  0  0  0
  134.6250  124.8590  119.2900 C   0  0  0  0  0  0  0  0  0  0  0  0
  135.2330  123.6460  119.5140 C   0  0  0  0  0  0  0  0  0  0  0  0
  135.7890  123.3180  120.7350 C   0  0  0  0  0  0  0  0  0  0  0  0
  135.2120  122.8470  118.4140 O   0  0  0  0  0  0  0  0  0  0  0  0
  134.5230  123.6960  117.4720 C   0  0  0  0  0  0  0  0  0  0  0  0
  134.1470  124.9750  118.0230 O   0  0  0  0  0  0  0  0  0  0  0  0
  132.6480  123.5100  123.4950 C   0  0  0  0  0  0  0  0  0  0  0  0
  131.8960  124.6120  123.0830 C   0  0  0  0  0  0  0  0  0  0  0  0
  132.9530  126.8962  125.3848 H   0  0  0  0  0  0  0  0  0  0  0  0
  134.3016  124.9335  126.1266 H   0  0  0  0  0  0  0  0  0  0  0  0
  134.1282  121.5957  124.2802 H   0  0  0  0  0  0  0  0  0  0  0  0
  132.9667  122.3345  126.6867 H   0  0  0  0  0  0  0  0  0  0  0  0
  133.7773  120.7547  126.2935 H   0  0  0  0  0  0  0  0  0  0  0  0
  135.0823  123.1796  127.5901 H   0  0  0  0  0  0  0  0  0  0  0  0
  134.5945  121.6256  128.3989 H   0  0  0  0  0  0  0  0  0  0  0  0
  136.9720  121.9170  127.7230 H   0  0  0  0  0  0  0  0  0  0  0  0
  137.6894  121.7914  125.6592 H   0  0  0  0  0  0  0  0  0  0  0  0
  136.3351  120.6242  125.2670 H   0  0  0  0  0  0  0  0  0  0  0  0
  136.0443  123.6575  125.4210 H   0  0  0  0  0  0  0  0  0  0  0  0
  137.4485  122.5196  123.4834 H   0  0  0  0  0  0  0  0  0  0  0  0
  135.8122  122.0935  122.8670 H   0  0  0  0  0  0  0  0  0  0  0  0
  135.0415  126.2488  122.3345 H   0  0  0  0  0  0  0  0  0  0  0  0
  134.0482  126.7830  120.0926 H   0  0  0  0  0  0  0  0  0  0  0  0
  136.2714  122.3427  120.8966 H   0  0  0  0  0  0  0  0  0  0  0  0
  135.1838  123.8684  116.6096 H   0  0  0  0  0  0  0  0  0  0  0  0
  133.5946  123.1792  117.1873 H   0  0  0  0  0  0  0  0  0  0  0  0
  132.5584  122.5563  122.9542 H   0  0  0  0  0  0  0  0  0  0  0  0
  131.2155  124.5278  122.2229 H   0  0  0  0  0  0  0  0  0  0  0  0
  1  2  1  0
  2  3  1  0
  3  4  2  0
  4  5  1  0
  5  6  1  0
  6  7  1  0
  7  8  1  0
  8  9  1  0
  9 10  1  0
 10 11  1  0
 11 12  1  0
 12 13  1  0
 13 14  1  0
 14 15  1  0
 15 16  2  0
 16 17  1  0
 17 18  2  0
 18 19  1  0
 18 20  1  0
 20 21  1  0
 21 22  1  0
  5 23  2  0
 23 24  1  0
 24  2  2  0
 11  6  1  0
 19 14  2  0
 22 17  1  0
  3 25  1  0
  4 26  1  0
  6 27  1  6
  7 28  1  0
  7 29  1  0
  8 30  1  0
  8 31  1  0
  9 32  1  0
 10 33  1  0
 10 34  1  0
 11 35  1  1
 12 36  1  0
 12 37  1  0
 15 38  1  0
 16 39  1  0
 19 40  1  0
 21 41  1  0
 21 42  1  0
 23 43  1  0
 24 44  1  0
M  END
>  <meeko>  (3) 
{"is_sidechain": [false], "free_energy": -9.725, "intermolecular_energy": -11.413, "internal_energy": -1.509}

$$$$
seed-2303
     RDKit          3D

 44 47  0  0  0  0  0  0  0  0999 V2000
  137.3600  120.1320  126.6770 F   0  0  0  0  0  0  0  0  0  0  0  0
  136.3910  121.0530  126.5820 C   0  0  0  0  0  0  0  0  0  0  0  0
  135.7030  121.2000  125.3840 C   0  0  0  0  0  0  0  0  0  0  0  0
  134.6940  122.1600  125.2820 C   0  0  0  0  0  0  0  0  0  0  0  0
  134.3690  122.9740  126.3790 C   0  0  0  0  0  0  0  0  0  0  0  0
  133.2820  124.0410  126.2960 C   0  0  2  0  0  0  0  0  0  0  0  0
  131.8760  123.4620  126.5650 C   0  0  0  0  0  0  0  0  0  0  0  0
  131.0120  123.4240  125.3080 C   0  0  0  0  0  0  0  0  0  0  0  0
  130.8420  124.7450  124.7090 N   0  0  0  0  0  0  0  0  0  0  0  0
  132.0340  125.5930  124.7580 C   0  0  0  0  0  0  0  0  0  0  0  0
  133.3440  124.8160  124.9520 C   0  0  1  0  0  0  0  0  0  0  0  0
  134.5590  125.7610  124.8780 C   0  0  0  0  0  0  0  0  0  0  0  0
  135.5730  125.1850  124.0550 O   0  0  0  0  0  0  0  0  0  0  0  0
  135.3150  125.0960  122.7140 C   0  0  0  0  0  0  0  0  0  0  0  0
  134.6930  126.2370  122.1680 C   0  0  0  0  0  0  0  0  0  0  0  0
  134.3640  126.3020  120.8100 C   0  0  0  0  0  0  0  0  0  0  0  0
  134.6700  125.2100  120.0290 C   0  0  0  0  0  0  0  0  0  0  0  0
  135.2760  124.0940  120.5570 C   0  0  0  0  0  0  0  0  0  0  0  0
  135.6110  124.0040  121.8950 C   0  0  0  0  0  0  0  0  0  0  0  0
  135.4900  123.1300  119.6220 O   0  0  0  0  0  0  0  0  0  0  0  0
  134.9510  123.7690  118.4450 C   0  0  0  0  0  0  0  0  0  0  0  0
  134.4290  125.0890  118.6980 O   0  0  0  0  0  0  0  0  0  0  0  0
  135.0830  122.8080  127.5790 C   0  0  0  0  0  0  0  0  0  0  0  0
  136.0920  121.8480  127.6790 C   0  0  0  0  0  0  0  0  0  0  0  0
  135.9515  120.5643  124.5214 H   0  0  0  0  0  0  0  0  0  0  0  0
  134.1490  122.2796  124.3340 H   0  0  0  0  0  0  0  0  0  0  0  0
  133.4812  124.7661  127.0988 H   0  0  0  0  0  0  0  0  0  0  0  0
  131.9838  122.4375  126.9506 H   0  0  0  0  0  0  0  0  0  0  0  0
  131.3776  124.1171  127.2947 H   0  0  0  0  0  0  0  0  0  0  0  0
  131.4891  122.7609  124.5714 H   0  0  0  0  0  0  0  0  0  0  0  0
  130.0163  123.0560  125.5965 H   0  0  0  0  0  0  0  0  0  0  0  0
  130.5140  124.6450  123.7480 H   0  0  0  0  0  0  0  0  0  0  0  0
  132.1000  126.1523  123.8131 H   0  0  0  0  0  0  0  0  0  0  0  0
  131.9213  126.2512  125.6321 H   0  0  0  0  0  0  0  0  0  0  0  0
  133.4672  124.0860  124.1384 H   0  0  0  0  0  0  0  0  0  0  0  0
  134.2459  126.7248  124.4502 H   0  0  0  0  0  0  0  0  0  0  0  0
  134.9593  125.9162  125.8907 H   0  0  0  0  0  0  0  0  0  0  0  0
  134.4622  127.0913  122.8213 H   0  0  0  0  0  0  0  0  0  0  0  0
  133.8791  127.1919  120.3821 H   0  0  0  0  0  0  0  0  0  0  0  0
  136.0942  123.1031  122.3010 H   0  0  0  0  0  0  0  0  0  0  0  0
  135.7510  123.8485  117.6942 H   0  0  0  0  0  0  0  0  0  0  0  0
  134.1120  123.1497  118.0949 H   0  0  0  0  0  0  0  0  0  0  0  0
  134.8444  123.4403  128.4470 H   0  0  0  0  0  0  0  0  0  0  0  0
  136.6460  121.7229  128.6210 H   0  0  0  0  0  0  0  0  0  0  0  0
  1  2  1  0
  2  3  1  0
  3  4  2  0
  4  5  1  0
  5  6  1  0
  6  7  1  0
  7  8  1  0
  8  9  1  0
  9 10  1  0
 10 11  1  0
 11 12  1  0
 12 13  1  0
 13 14  1  0
 14 15  1  0
 15 16  2  0
 16 17  1  0
 17 18  2  0
 18 19  1  0
 18 20  1  0
 20 21  1  0
 21 22  1  0
  5 23  2  0
 23 24  1  0
 24  2  2  0
 11  6  1  0
 19 14  2  0
 22 17  1  0
  3 25  1  0
  4 26  1  0
  6 27  1  1
  7 28  1  0
  7 29  1  0
  8 30  1  0
  8 31  1  0
  9 32  1  0
 10 33  1  0
 10 34  1  0
 11 35  1  6
 12 36  1  0
 12 37  1  0
 15 38  1  0
 16 39  1  0
 19 40  1  0
 21 41  1  0
 21 42  1  0
 23 43  1  0
 24 44  1  0
M  END
>  <meeko>  (4) 
{"is_sidechain": [false], "free_energy": -9.637, "intermolecular_energy": -11.777, "internal_energy": -1.037}

$$$$
seed-2303
     RDKit          3D

 44 47  0  0  0  0  0  0  0  0999 V2000
  136.3840  121.5890  127.3530 F   0  0  0  0  0  0  0  0  0  0  0  0
  136.0300  121.9650  126.1170 C   0  0  0  0  0  0  0  0  0  0  0  0
  136.4350  123.2050  125.6380 C   0  0  0  0  0  0  0  0  0  0  0  0
  136.0650  123.6010  124.3500 C   0  0  0  0  0  0  0  0  0  0  0  0
  135.2930  122.7550  123.5380 C   0  0  0  0  0  0  0  0  0  0  0  0
  134.8620  123.1630  122.1320 C   0  0  2  0  0  0  0  0  0  0  0  0
  136.0150  123.0450  121.1120 C   0  0  0  0  0  0  0  0  0  0  0  0
  136.5160  124.4060  120.6400 C   0  0  0  0  0  0  0  0  0  0  0  0
  135.4590  125.2060  120.0260 N   0  0  0  0  0  0  0  0  0  0  0  0
  134.1510  125.0860  120.6730 C   0  0  0  0  0  0  0  0  0  0  0  0
  134.2170  124.5750  122.1200 C   0  0  1  0  0  0  0  0  0  0  0  0
  132.8200  124.5850  122.7690 C   0  0  0  0  0  0  0  0  0  0  0  0
  132.8820  125.2180  124.0470 O   0  0  0  0  0  0  0  0  0  0  0  0
  131.9890  124.8010  124.9960 C   0  0  0  0  0  0  0  0  0  0  0  0
  132.3020  123.5560  125.5780 C   0  0  0  0  0  0  0  0  0  0  0  0
  131.4870  122.9930  126.5650 C   0  0  0  0  0  0  0  0  0  0  0  0
  130.3690  123.7010  126.9450 C   0  0  0  0  0  0  0  0  0  0  0  0
  130.0580  124.9150  126.3790 C   0  0  0  0  0  0  0  0  0  0  0  0
  130.8460  125.4930  125.4030 C   0  0  0  0  0  0  0  0  0  0  0  0
  128.9160  125.4470  126.8920 O   0  0  0  0  0  0  0  0  0  0  0  0
  128.5450  124.4280  127.8450 C   0  0  0  0  0  0  0  0  0  0  0  0
  129.4640  123.3170  127.8830 O   0  0  0  0  0  0  0  0  0  0  0  0
  134.8940  121.5070  124.0470 C   0  0  0  0  0  0  0  0  0  0  0  0
  135.2630  121.1140  125.3350 C   0  0  0  0  0  0  0  0  0  0  0  0
  137.0429  123.8705  126.2686 H   0  0  0  0  0  0  0  0  0  0  0  0
  136.3811  124.5834  123.9693 H   0  0  0  0  0  0  0  0  0  0  0  0
  134.0880  122.4494  121.8130 H   0  0  0  0  0  0  0  0  0  0  0  0
  136.8497  122.5055  121.5834 H   0  0  0  0  0  0  0  0  0  0  0  0
  135.6312  122.5059  120.2333 H   0  0  0  0  0  0  0  0  0  0  0  0
  136.9168  124.9544  121.5052 H   0  0  0  0  0  0  0  0  0  0  0  0
  137.2908  124.2327  119.8786 H   0  0  0  0  0  0  0  0  0  0  0  0
  135.7490  126.1830  119.9860 H   0  0  0  0  0  0  0  0  0  0  0  0
  133.6744  126.0774  120.6772 H   0  0  0  0  0  0  0  0  0  0  0  0
  133.5773  124.3441  120.0982 H   0  0  0  0  0  0  0  0  0  0  0  0
  134.8457  125.2461  122.7236 H   0  0  0  0  0  0  0  0  0  0  0  0
  132.1215  125.1364  122.1224 H   0  0  0  0  0  0  0  0  0  0  0  0
  132.4719  123.5491  122.8947 H   0  0  0  0  0  0  0  0  0  0  0  0
  133.2034  123.0177  125.2499 H   0  0  0  0  0  0  0  0  0  0  0  0
  131.7298  122.0216  127.0204 H   0  0  0  0  0  0  0  0  0  0  0  0
  130.5824  126.4653  124.9612 H   0  0  0  0  0  0  0  0  0  0  0  0
  128.5072  124.8836  128.8455 H   0  0  0  0  0  0  0  0  0  0  0  0
  127.5683  124.0307  127.5317 H   0  0  0  0  0  0  0  0  0  0  0  0
  134.2856  120.8339  123.4250 H   0  0  0  0  0  0  0  0  0  0  0  0
  134.9475  120.1358  125.7270 H   0  0  0  0  0  0  0  0  0  0  0  0
  1  2  1  0
  2  3  1  0
  3  4  2  0
  4  5  1  0
  5  6  1  0
  6  7  1  0
  7  8  1  0
  8  9  1  0
  9 10  1  0
 10 11  1  0
 11 12  1  0
 12 13  1  0
 13 14  1  0
 14 15  1  0
 15 16  2  0
 16 17  1  0
 17 18  2  0
 18 19  1  0
 18 20  1  0
 20 21  1  0
 21 22  1  0
  5 23  2  0
 23 24  1  0
 24  2  2  0
 11  6  1  0
 19 14  2  0
 22 17  1  0
  3 25  1  0
  4 26  1  0
  6 27  1  6
  7 28  1  0
  7 29  1  0
  8 30  1  0
  8 31  1  0
  9 32  1  0
 10 33  1  0
 10 34  1  0
 11 35  1  1
 12 36  1  0
 12 37  1  0
 15 38  1  0
 16 39  1  0
 19 40  1  0
 21 41  1  0
 21 42  1  0
 23 43  1  0
 24 44  1  0
M  END
>  <meeko>  (5) 
{"is_sidechain": [false], "free_energy": -9.571, "intermolecular_energy": -11.354, "internal_energy": -1.379}

$$$$
seed-2303
     RDKit          3D

 44 47  0  0  0  0  0  0  0  0999 V2000
  127.4210  130.1880  121.1750 F   0  0  0  0  0  0  0  0  0  0  0  0
  127.9580  129.3870  122.1060 C   0  0  0  0  0  0  0  0  0  0  0  0
  127.4310  128.1170  122.3000 C   0  0  0  0  0  0  0  0  0  0  0  0
  127.9870  127.2810  123.2700 C   0  0  0  0  0  0  0  0  0  0  0  0
  129.0740  127.7120  124.0470 C   0  0  0  0  0  0  0  0  0  0  0  0
  129.6960  126.8290  125.1240 C   0  0  2  0  0  0  0  0  0  0  0  0
  129.2310  127.2260  126.5430 C   0  0  0  0  0  0  0  0  0  0  0  0
  130.3440  127.8730  127.3610 C   0  0  0  0  0  0  0  0  0  0  0  0
  131.5090  127.0030  127.5010 N   0  0  0  0  0  0  0  0  0  0  0  0
  131.8320  126.2200  126.3070 C   0  0  0  0  0  0  0  0  0  0  0  0
  131.2430  126.7930  125.0090 C   0  0  1  0  0  0  0  0  0  0  0  0
  131.7200  125.9850  123.7880 C   0  0  0  0  0  0  0  0  0  0  0  0
  133.1470  125.9620  123.7460 O   0  0  0  0  0  0  0  0  0  0  0  0
  133.7310  125.3330  122.6810 C   0  0  0  0  0  0  0  0  0  0  0  0
  134.4820  124.1900  123.0240 C   0  0  0  0  0  0  0  0  0  0  0  0
  135.1410  123.4370  122.0470 C   0  0  0  0  0  0  0  0  0  0  0  0
  135.0280  123.8540  120.7400 C   0  0  0  0  0  0  0  0  0  0  0  0
  134.2970  124.9680  120.4000 C   0  0  0  0  0  0  0  0  0  0  0  0
  133.6380  125.7300  121.3450 C   0  0  0  0  0  0  0  0  0  0  0  0
  134.3130  125.2080  119.0610 O   0  0  0  0  0  0  0  0  0  0  0  0
  135.1370  124.1160  118.5980 C   0  0  0  0  0  0  0  0  0  0  0  0
  135.5930  123.2540  119.6600 O   0  0  0  0  0  0  0  0  0  0  0  0
  129.5870  129.0040  123.8330 C   0  0  0  0  0  0  0  0  0  0  0  0
  129.0300  129.8390  122.8630 C   0  0  0  0  0  0  0  0  0  0  0  0
  126.5809  127.7719  121.6932 H   0  0  0  0  0  0  0  0  0  0  0  0
  127.5696  126.2754  123.4269 H   0  0  0  0  0  0  0  0  0  0  0  0
  129.3329  125.8053  124.9500 H   0  0  0  0  0  0  0  0  0  0  0  0
  128.3976  127.9386  126.4550 H   0  0  0  0  0  0  0  0  0  0  0  0
  128.9233  126.3073  127.0639 H   0  0  0  0  0  0  0  0  0  0  0  0
  130.6550  128.8025  126.8616 H   0  0  0  0  0  0  0  0  0  0  0  0
  129.9490  128.0699  128.3686 H   0  0  0  0  0  0  0  0  0  0  0  0
  132.3150  127.5550  127.7950 H   0  0  0  0  0  0  0  0  0  0  0  0
  132.9264  126.1818  126.2034 H   0  0  0  0  0  0  0  0  0  0  0  0
  131.3862  125.2243  126.4478 H   0  0  0  0  0  0  0  0  0  0  0  0
  131.6007  127.8226  124.8605 H   0  0  0  0  0  0  0  0  0  0  0  0
  131.3409  124.9550  123.8619 H   0  0  0  0  0  0  0  0  0  0  0  0
  131.3389  126.4574  122.8706 H   0  0  0  0  0  0  0  0  0  0  0  0
  134.5507  123.8852  124.0787 H   0  0  0  0  0  0  0  0  0  0  0  0
  135.7275  122.5452  122.3129 H   0  0  0  0  0  0  0  0  0  0  0  0
  133.0594  126.6195  121.0552 H   0  0  0  0  0  0  0  0  0  0  0  0
  134.5516  123.5142  117.8872 H   0  0  0  0  0  0  0  0  0  0  0  0
  136.0299  124.5575  118.1313 H   0  0  0  0  0  0  0  0  0  0  0  0
  130.4354  129.3599  124.4359 H   0  0  0  0  0  0  0  0  0  0  0  0
  129.4375  130.8476  122.6998 H   0  0  0  0  0  0  0  0  0  0  0  0
  1  2  1  0
  2  3  1  0
  3  4  2  0
  4  5  1  0
  5  6  1  0
  6  7  1  0
  7  8  1  0
  8  9  1  0
  9 10  1  0
 10 11  1  0
 11 12  1  0
 12 13  1  0
 13 14  1  0
 14 15  1  0
 15 16  2  0
 16 17  1  0
 17 18  2  0
 18 19  1  0
 18 20  1  0
 20 21  1  0
 21 22  1  0
  5 23  2  0
 23 24  1  0
 24  2  2  0
 11  6  1  0
 19 14  2  0
 22 17  1  0
  3 25  1  0
  4 26  1  0
  6 27  1  6
  7 28  1  0
  7 29  1  0
  8 30  1  0
  8 31  1  0
  9 32  1  0
 10 33  1  0
 10 34  1  0
 11 35  1  6
 12 36  1  0
 12 37  1  0
 15 38  1  0
 16 39  1  0
 19 40  1  0
 21 41  1  0
 21 42  1  0
 23 43  1  0
 24 44  1  0
M  END
>  <meeko>  (6) 
{"is_sidechain": [false], "free_energy": -9.545, "intermolecular_energy": -11.977, "internal_energy": -0.723}

$$$$
seed-2303
     RDKit          3D

 44 47  0  0  0  0  0  0  0  0999 V2000
  130.4850  122.9720  127.1560 F   0  0  0  0  0  0  0  0  0  0  0  0
  131.6040  123.3110  126.5010 C   0  0  0  0  0  0  0  0  0  0  0  0
  132.3900  122.3170  125.9310 C   0  0  0  0  0  0  0  0  0  0  0  0
  133.5580  122.6660  125.2500 C   0  0  0  0  0  0  0  0  0  0  0  0
  133.9410  124.0120  125.1340 C   0  0  0  0  0  0  0  0  0  0  0  0
  135.2170  124.4270  124.4080 C   0  0  2  0  0  0  0  0  0  0  0  0
  136.4630  124.3150  125.3120 C   0  0  0  0  0  0  0  0  0  0  0  0
  137.0260  125.6800  125.6990 C   0  0  0  0  0  0  0  0  0  0  0  0
  137.3910  126.4820  124.5350 N   0  0  0  0  0  0  0  0  0  0  0  0
  136.4760  126.3570  123.3990 C   0  0  0  0  0  0  0  0  0  0  0  0
  135.0810  125.8380  123.7770 C   0  0  1  0  0  0  0  0  0  0  0  0
  134.1440  125.8440  122.5540 C   0  0  0  0  0  0  0  0  0  0  0  0
  134.8850  126.1590  121.3750 O   0  0  0  0  0  0  0  0  0  0  0  0
  134.8870  125.2300  120.3700 C   0  0  0  0  0  0  0  0  0  0  0  0
  135.6070  124.0560  120.6700 C   0  0  0  0  0  0  0  0  0  0  0  0
  135.7030  123.0100  119.7470 C   0  0  0  0  0  0  0  0  0  0  0  0
  135.0690  123.1730  118.5350 C   0  0  0  0  0  0  0  0  0  0  0  0
  134.3670  124.3170  118.2370 C   0  0  0  0  0  0  0  0  0  0  0  0
  134.2560  125.3640  119.1320 C   0  0  0  0  0  0  0  0  0  0  0  0
  133.8180  124.2770  116.9930 O   0  0  0  0  0  0  0  0  0  0  0  0
  134.2560  122.9770  116.5440 C   0  0  0  0  0  0  0  0  0  0  0  0
  135.0500  122.2720  117.5180 O   0  0  0  0  0  0  0  0  0  0  0  0
  133.1300  124.9990  125.7220 C   0  0  0  0  0  0  0  0  0  0  0  0
  131.9630  124.6480  126.4030 C   0  0  0  0  0  0  0  0  0  0  0  0
  132.0938  121.2610  126.0158 H   0  0  0  0  0  0  0  0  0  0  0  0
  134.1831  121.8802  124.8008 H   0  0  0  0  0  0  0  0  0  0  0  0
  135.3642  123.7151  123.5825 H   0  0  0  0  0  0  0  0  0  0  0  0
  136.1866  123.7740  126.2290 H   0  0  0  0  0  0  0  0  0  0  0  0
  137.2402  123.7797  124.7469 H   0  0  0  0  0  0  0  0  0  0  0  0
  136.2658  126.2242  126.2786 H   0  0  0  0  0  0  0  0  0  0  0  0
  137.9386  125.5111  126.2894 H   0  0  0  0  0  0  0  0  0  0  0  0
  137.4880  127.4600  124.8090 H   0  0  0  0  0  0  0  0  0  0  0  0
  136.3627  127.3479  122.9350 H   0  0  0  0  0  0  0  0  0  0  0  0
  136.9167  125.6175  122.7142 H   0  0  0  0  0  0  0  0  0  0  0  0
  134.6245  126.5059  124.5223 H   0  0  0  0  0  0  0  0  0  0  0  0
  133.6848  124.8508  122.4416 H   0  0  0  0  0  0  0  0  0  0  0  0
  133.3604  126.6016  122.7022 H   0  0  0  0  0  0  0  0  0  0  0  0
  136.1022  123.9609  121.6476 H   0  0  0  0  0  0  0  0  0  0  0  0
  136.2632  122.0924  119.9798 H   0  0  0  0  0  0  0  0  0  0  0  0
  133.6897  126.2721  118.8776 H   0  0  0  0  0  0  0  0  0  0  0  0
  133.3678  122.3704  116.3134 H   0  0  0  0  0  0  0  0  0  0  0  0
  134.8921  123.1362  115.6608 H   0  0  0  0  0  0  0  0  0  0  0  0
  133.4180  126.0578  125.6446 H   0  0  0  0  0  0  0  0  0  0  0  0
  131.3324  125.4257  126.8587 H   0  0  0  0  0  0  0  0  0  0  0  0
  1  2  1  0
  2  3  1  0
  3  4  2  0
  4  5  1  0
  5  6  1  0
  6  7  1  0
  7  8  1  0
  8  9  1  0
  9 10  1  0
 10 11  1  0
 11 12  1  0
 12 13  1  0
 13 14  1  0
 14 15  1  0
 15 16  2  0
 16 17  1  0
 17 18  2  0
 18 19  1  0
 18 20  1  0
 20 21  1  0
 21 22  1  0
  5 23  2  0
 23 24  1  0
 24  2  2  0
 11  6  1  0
 19 14  2  0
 22 17  1  0
  3 25  1  0
  4 26  1  0
  6 27  1  6
  7 28  1  0
  7 29  1  0
  8 30  1  0
  8 31  1  0
  9 32  1  0
 10 33  1  0
 10 34  1  0
 11 35  1  1
 12 36  1  0
 12 37  1  0
 15 38  1  0
 16 39  1  0
 19 40  1  0
 21 41  1  0
 21 42  1  0
 23 43  1  0
 24 44  1  0
M  END
>  <meeko>  (7) 
{"is_sidechain": [false], "free_energy": -9.393, "intermolecular_energy": -11.721, "internal_energy": -0.792}

$$$$
seed-2303
     RDKit          3D

 44 47  0  0  0  0  0  0  0  0999 V2000
  136.2810  120.1270  126.4360 F   0  0  0  0  0  0  0  0  0  0  0  0
  135.8400  121.3100  125.9870 C   0  0  0  0  0  0  0  0  0  0  0  0
  135.5510  121.4640  124.6380 C   0  0  0  0  0  0  0  0  0  0  0  0
  135.0930  122.6960  124.1660 C   0  0  0  0  0  0  0  0  0  0  0  0
  134.9200  123.7770  125.0460 C   0  0  0  0  0  0  0  0  0  0  0  0
  134.4350  125.1400  124.5610 C   0  0  2  0  0  0  0  0  0  0  0  0
  133.1180  125.5660  125.2470 C   0  0  0  0  0  0  0  0  0  0  0  0
  131.9290  125.5390  124.2910 C   0  0  0  0  0  0  0  0  0  0  0  0
  132.1270  126.4030  123.1310 N   0  0  0  0  0  0  0  0  0  0  0  0
  133.4940  126.4140  122.6060 C   0  0  0  0  0  0  0  0  0  0  0  0
  134.3270  125.1900  123.0140 C   0  0  1  0  0  0  0  0  0  0  0  0
  135.7080  125.2160  122.3320 C   0  0  0  0  0  0  0  0  0  0  0  0
  135.5780  125.6770  120.9870 O   0  0  0  0  0  0  0  0  0  0  0  0
  135.2640  124.7450  120.0350 C   0  0  0  0  0  0  0  0  0  0  0  0
  134.4630  125.2390  118.9850 C   0  0  0  0  0  0  0  0  0  0  0  0
  134.0580  124.4110  117.9340 C   0  0  0  0  0  0  0  0  0  0  0  0
  134.4700  123.0980  117.9640 C   0  0  0  0  0  0  0  0  0  0  0  0
  135.2510  122.6110  118.9860 C   0  0  0  0  0  0  0  0  0  0  0  0
  135.6650  123.4070  120.0370 C   0  0  0  0  0  0  0  0  0  0  0  0
  135.5470  121.2930  118.8280 O   0  0  0  0  0  0  0  0  0  0  0  0
  134.8640  121.0070  117.5890 C   0  0  0  0  0  0  0  0  0  0  0  0
  134.1780  122.1490  117.0360 O   0  0  0  0  0  0  0  0  0  0  0  0
  135.2230  123.5970  126.4070 C   0  0  0  0  0  0  0  0  0  0  0  0
  135.6810  122.3650  126.8760 C   0  0  0  0  0  0  0  0  0  0  0  0
  135.6820  120.6202  123.9446 H   0  0  0  0  0  0  0  0  0  0  0  0
  134.8660  122.8208  123.0969 H   0  0  0  0  0  0  0  0  0  0  0  0
  135.1960  125.8771  124.8571 H   0  0  0  0  0  0  0  0  0  0  0  0
  132.9159  124.8785  126.0816 H   0  0  0  0  0  0  0  0  0  0  0  0
  133.2424  126.6009  125.5984 H   0  0  0  0  0  0  0  0  0  0  0  0
  131.7805  124.5067  123.9412 H   0  0  0  0  0  0  0  0  0  0  0  0
  131.0501  125.9097  124.8388 H   0  0  0  0  0  0  0  0  0  0  0  0
  131.4650  126.1480  122.3970 H   0  0  0  0  0  0  0  0  0  0  0  0
  133.4430  126.4478  121.5077 H   0  0  0  0  0  0  0  0  0  0  0  0
  133.9929  127.2965  123.0329 H   0  0  0  0  0  0  0  0  0  0  0  0
  133.8284  124.2702  122.6743 H   0  0  0  0  0  0  0  0  0  0  0  0
  136.3756  125.8921  122.8862 H   0  0  0  0  0  0  0  0  0  0  0  0
  136.1282  124.1995  122.3270 H   0  0  0  0  0  0  0  0  0  0  0  0
  134.1515  126.2939  118.9930 H   0  0  0  0  0  0  0  0  0  0  0  0
  133.4334  124.7944  117.1137 H   0  0  0  0  0  0  0  0  0  0  0  0
  136.2887  123.0010  120.8471 H   0  0  0  0  0  0  0  0  0  0  0  0
  135.6049  120.6564  116.8554 H   0  0  0  0  0  0  0  0  0  0  0  0
  134.1016  120.2446  117.8070 H   0  0  0  0  0  0  0  0  0  0  0  0
  135.0979  124.4349  127.1086 H   0  0  0  0  0  0  0  0  0  0  0  0
  135.9145  122.2305  127.9425 H   0  0  0  0  0  0  0  0  0  0  0  0
  1  2  1  0
  2  3  1  0
  3  4  2  0
  4  5  1  0
  5  6  1  0
  6  7  1  0
  7  8  1  0
  8  9  1  0
  9 10  1  0
 10 11  1  0
 11 12  1  0
 12 13  1  0
 13 14  1  0
 14 15  1  0
 15 16  2  0
 16 17  1  0
 17 18  2  0
 18 19  1  0
 18 20  1  0
 20 21  1  0
 21 22  1  0
  5 23  2  0
 23 24  1  0
 24  2  2  0
 11  6  1  0
 19 14  2  0
 22 17  1  0
  3 25  1  0
  4 26  1  0
  6 27  1  1
  7 28  1  0
  7 29  1  0
  8 30  1  0
  8 31  1  0
  9 32  1  0
 10 33  1  0
 10 34  1  0
 11 35  1  6
 12 36  1  0
 12 37  1  0
 15 38  1  0
 16 39  1  0
 19 40  1  0
 21 41  1  0
 21 42  1  0
 23 43  1  0
 24 44  1  0
M  END
>  <meeko>  (8) 
{"is_sidechain": [false], "free_energy": -9.371, "intermolecular_energy": -11.893, "internal_energy": -0.592}

$$$$
seed-2303
     RDKit          3D

 44 47  0  0  0  0  0  0  0  0999 V2000
  135.5280  121.3770  127.8570 F   0  0  0  0  0  0  0  0  0  0  0  0
  135.3650  122.0720  126.7220 C   0  0  0  0  0  0  0  0  0  0  0  0
  134.9740  123.4030  126.7870 C   0  0  0  0  0  0  0  0  0  0  0  0
  134.8010  124.1290  125.6060 C   0  0  0  0  0  0  0  0  0  0  0  0
  135.0210  123.5250  124.3580 C   0  0  0  0  0  0  0  0  0  0  0  0
  134.8290  124.2850  123.0500 C   0  0  2  0  0  0  0  0  0  0  0  0
  136.1360  124.9500  122.5650 C   0  0  0  0  0  0  0  0  0  0  0  0
  136.0960  126.4700  122.6880 C   0  0  0  0  0  0  0  0  0  0  0  0
  134.9910  127.0610  121.9370 N   0  0  0  0  0  0  0  0  0  0  0  0
  133.7490  126.2860  121.9720 C   0  0  0  0  0  0  0  0  0  0  0  0
  133.6610  125.3030  123.1480 C   0  0  1  0  0  0  0  0  0  0  0  0
  132.2850  124.6110  123.1820 C   0  0  0  0  0  0  0  0  0  0  0  0
  131.2480  125.5860  123.0620 O   0  0  0  0  0  0  0  0  0  0  0  0
  130.8170  126.1870  124.2130 C   0  0  0  0  0  0  0  0  0  0  0  0
  130.3830  127.5170  124.0440 C   0  0  0  0  0  0  0  0  0  0  0  0
  129.9120  128.2680  125.1250 C   0  0  0  0  0  0  0  0  0  0  0  0
  129.8900  127.6580  126.3600 C   0  0  0  0  0  0  0  0  0  0  0  0
  130.3140  126.3610  126.5310 C   0  0  0  0  0  0  0  0  0  0  0  0
  130.7840  125.5980  125.4790 C   0  0  0  0  0  0  0  0  0  0  0  0
  130.2120  125.9500  127.8230 O   0  0  0  0  0  0  0  0  0  0  0  0
  129.6740  127.1370  128.4450 C   0  0  0  0  0  0  0  0  0  0  0  0
  129.4680  128.2240  127.5210 O   0  0  0  0  0  0  0  0  0  0  0  0
  135.4130  122.1750  124.3200 C   0  0  0  0  0  0  0  0  0  0  0  0
  135.5850  121.4510  125.5010 C   0  0  0  0  0  0  0  0  0  0  0  0
  134.8017  123.8824  127.7619 H   0  0  0  0  0  0  0  0  0  0  0  0
  134.4897  125.1829  125.6544 H   0  0  0  0  0  0  0  0  0  0  0  0
  134.5521  123.5443  122.2853 H   0  0  0  0  0  0  0  0  0  0  0  0
  136.9719  124.5686  123.1699 H   0  0  0  0  0  0  0  0  0  0  0  0
  136.2628  124.7030  121.5006 H   0  0  0  0  0  0  0  0  0  0  0  0
  135.9835  126.7356  123.7495 H   0  0  0  0  0  0  0  0  0  0  0  0
  137.0340  126.8649  122.2707 H   0  0  0  0  0  0  0  0  0  0  0  0
  134.8260  128.0140  122.2630 H   0  0  0  0  0  0  0  0  0  0  0  0
  132.9050  126.9878  122.0435 H   0  0  0  0  0  0  0  0  0  0  0  0
  133.7222  125.6849  121.0512 H   0  0  0  0  0  0  0  0  0  0  0  0
  133.7592  125.8496  124.0975 H   0  0  0  0  0  0  0  0  0  0  0  0
  132.2142  123.8985  122.3470 H   0  0  0  0  0  0  0  0  0  0  0  0
  132.1715  124.0768  124.1369 H   0  0  0  0  0  0  0  0  0  0  0  0
  130.4154  127.9726  123.0433 H   0  0  0  0  0  0  0  0  0  0  0  0
  129.5721  129.3060  124.9945 H   0  0  0  0  0  0  0  0  0  0  0  0
  131.1206  124.5622  125.6334 H   0  0  0  0  0  0  0  0  0  0  0  0
  128.7077  126.8823  128.9048 H   0  0  0  0  0  0  0  0  0  0  0  0
  130.4109  127.4771  129.1875 H   0  0  0  0  0  0  0  0  0  0  0  0
  135.5857  121.6849  123.3505 H   0  0  0  0  0  0  0  0  0  0  0  0
  135.8928  120.3956  125.4638 H   0  0  0  0  0  0  0  0  0  0  0  0
  1  2  1  0
  2  3  1  0
  3  4  2  0
  4  5  1  0
  5  6  1  0
  6  7  1  0
  7  8  1  0
  8  9  1  0
  9 10  1  0
 10 11  1  0
 11 12  1  0
 12 13  1  0
 13 14  1  0
 14 15  1  0
 15 16  2  0
 16 17  1  0
 17 18  2  0
 18 19  1  0
 18 20  1  0
 20 21  1  0
 21 22  1  0
  5 23  2  0
 23 24  1  0
 24  2  2  0
 11  6  1  0
 19 14  2  0
 22 17  1  0
  3 25  1  0
  4 26  1  0
  6 27  1  6
  7 28  1  0
  7 29  1  0
  8 30  1  0
  8 31  1  0
  9 32  1  0
 10 33  1  0
 10 34  1  0
 11 35  1  1
 12 36  1  0
 12 37  1  0
 15 38  1  0
 16 39  1  0
 19 40  1  0
 21 41  1  0
 21 42  1  0
 23 43  1  0
 24 44  1  0
M  END
>  <meeko>  (9) 
{"is_sidechain": [false], "free_energy": -9.323, "intermolecular_energy": -11.461, "internal_energy": -0.964}

$$$$
seed-2303
     RDKit          3D

 44 47  0  0  0  0  0  0  0  0999 V2000
  129.8250  125.6480  127.3000 F   0  0  0  0  0  0  0  0  0  0  0  0
  130.7840  124.9120  126.7230 C   0  0  0  0  0  0  0  0  0  0  0  0
  130.4560  123.6890  126.1510 C   0  0  0  0  0  0  0  0  0  0  0  0
  131.4540  122.9190  125.5510 C   0  0  0  0  0  0  0  0  0  0  0  0
  132.7830  123.3720  125.5180 C   0  0  0  0  0  0  0  0  0  0  0  0
  133.8990  122.5490  124.8820 C   0  0  2  0  0  0  0  0  0  0  0  0
  134.5960  121.6250  125.9040 C   0  0  0  0  0  0  0  0  0  0  0  0
  136.0160  122.0820  126.2280 C   0  0  0  0  0  0  0  0  0  0  0  0
  136.8630  122.1520  125.0400 N   0  0  0  0  0  0  0  0  0  0  0  0
  136.1870  122.6430  123.8380 C   0  0  0  0  0  0  0  0  0  0  0  0
  134.9130  123.4500  124.1260 C   0  0  1  0  0  0  0  0  0  0  0  0
  134.3240  124.0290  122.8260 C   0  0  0  0  0  0  0  0  0  0  0  0
  135.3750  124.3230  121.9050 O   0  0  0  0  0  0  0  0  0  0  0  0
  135.1690  123.9900  120.5940 C   0  0  0  0  0  0  0  0  0  0  0  0
  134.6040  125.0220  119.8170 C   0  0  0  0  0  0  0  0  0  0  0  0
  134.3330  124.8380  118.4570 C   0  0  0  0  0  0  0  0  0  0  0  0
  134.6390  123.6130  117.9090 C   0  0  0  0  0  0  0  0  0  0  0  0
  135.1890  122.6030  118.6620 C   0  0  0  0  0  0  0  0  0  0  0  0
  135.4660  122.7580  120.0070 C   0  0  0  0  0  0  0  0  0  0  0  0
  135.4130  121.4770  117.9330 O   0  0  0  0  0  0  0  0  0  0  0  0
  134.9420  121.8950  116.6340 C   0  0  0  0  0  0  0  0  0  0  0  0
  134.4500  123.2500  116.6130 O   0  0  0  0  0  0  0  0  0  0  0  0
  133.0890  124.6120  126.1060 C   0  0  0  0  0  0  0  0  0  0  0  0
  132.0910  125.3800  126.7070 C   0  0  0  0  0  0  0  0  0  0  0  0
  129.4165  123.3297  126.1708 H   0  0  0  0  0  0  0  0  0  0  0  0
  131.1972  121.9490  125.1002 H   0  0  0  0  0  0  0  0  0  0  0  0
  133.4289  121.8918  124.1356 H   0  0  0  0  0  0  0  0  0  0  0  0
  134.0067  121.6175  126.8328 H   0  0  0  0  0  0  0  0  0  0  0  0
  134.6601  120.6210  125.4592 H   0  0  0  0  0  0  0  0  0  0  0  0
  135.9696  123.0801  126.6881 H   0  0  0  0  0  0  0  0  0  0  0  0
  136.4583  121.3430  126.9123 H   0  0  0  0  0  0  0  0  0  0  0  0
  137.6890  122.7160  125.2410 H   0  0  0  0  0  0  0  0  0  0  0  0
  136.8872  123.2868  123.2855 H   0  0  0  0  0  0  0  0  0  0  0  0
  135.8807  121.7584  123.2603 H   0  0  0  0  0  0  0  0  0  0  0  0
  135.1552  124.3099  124.7678 H   0  0  0  0  0  0  0  0  0  0  0  0
  133.6400  123.2941  122.3764 H   0  0  0  0  0  0  0  0  0  0  0  0
  133.7758  124.9542  123.0573 H   0  0  0  0  0  0  0  0  0  0  0  0
  134.3723  125.9885  120.2884 H   0  0  0  0  0  0  0  0  0  0  0  0
  133.8922  125.6416  117.8488 H   0  0  0  0  0  0  0  0  0  0  0  0
  135.9055  121.9389  120.5952 H   0  0  0  0  0  0  0  0  0  0  0  0
  135.7740  121.8148  115.9189 H   0  0  0  0  0  0  0  0  0  0  0  0
  134.1001  121.2393  116.3670 H   0  0  0  0  0  0  0  0  0  0  0  0
  134.1254  124.9803  126.0921 H   0  0  0  0  0  0  0  0  0  0  0  0
  132.3380  126.3492  127.1648 H   0  0  0  0  0  0  0  0  0  0  0  0
  1  2  1  0
  2  3  1  0
  3  4  2  0
  4  5  1  0
  5  6  1  0
  6  7  1  0
  7  8  1  0
  8  9  1  0
  9 10  1  0
 10 11  1  0
 11 12  1  0
 12 13  1  0
 13 14  1  0
 14 15  1  0
 15 16  2  0
 16 17  1  0
 17 18  2  0
 18 19  1  0
 18 20  1  0
 20 21  1  0
 21 22  1  0
  5 23  2  0
 23 24  1  0
 24  2  2  0
 11  6  1  0
 19 14  2  0
 22 17  1  0
  3 25  1  0
  4 26  1  0
  6 27  1  6
  7 28  1  0
  7 29  1  0
  8 30  1  0
  8 31  1  0
  9 32  1  0
 10 33  1  0
 10 34  1  0
 11 35  1  1
 12 36  1  0
 12 37  1  0
 15 38  1  0
 16 39  1  0
 19 40  1  0
 21 41  1  0
 21 42  1  0
 23 43  1  0
 24 44  1  0
M  END
>  <meeko>  (10) 
{"is_sidechain": [false], "free_energy": -9.32, "intermolecular_energy": -11.693, "internal_energy": -0.73}

$$$$
seed-2303
     RDKit          3D

 44 47  0  0  0  0  0  0  0  0999 V2000
  130.6710  123.9060  126.1800 F   0  0  0  0  0  0  0  0  0  0  0  0
  131.5090  124.4060  125.2620 C   0  0  0  0  0  0  0  0  0  0  0  0
  131.8390  123.6430  124.1500 C   0  0  0  0  0  0  0  0  0  0  0  0
  132.7140  124.1600  123.1920 C   0  0  0  0  0  0  0  0  0  0  0  0
  133.2580  125.4450  123.3440 C   0  0  0  0  0  0  0  0  0  0  0  0
  134.2270  126.0350  122.3230 C   0  0  2  0  0  0  0  0  0  0  0  0
  133.7510  125.8100  120.8710 C   0  0  0  0  0  0  0  0  0  0  0  0
  134.6160  124.7990  120.1260 C   0  0  0  0  0  0  0  0  0  0  0  0
  136.0210  125.1960  120.0770 N   0  0  0  0  0  0  0  0  0  0  0  0
  136.5170  125.8300  121.3000 C   0  0  0  0  0  0  0  0  0  0  0  0
  135.6740  125.5210  122.5470 C   0  0  1  0  0  0  0  0  0  0  0  0
  136.3200  126.1250  123.8080 C   0  0  0  0  0  0  0  0  0  0  0  0
  136.9230  125.0920  124.5880 O   0  0  0  0  0  0  0  0  0  0  0  0
  136.1460  124.0080  124.8980 C   0  0  0  0  0  0  0  0  0  0  0  0
  136.2230  122.9550  123.9640 C   0  0  0  0  0  0  0  0  0  0  0  0
  135.4890  121.7780  124.1390 C   0  0  0  0  0  0  0  0  0  0  0  0
  134.6900  121.6880  125.2560 C   0  0  0  0  0  0  0  0  0  0  0  0
  134.6110  122.7120  126.1700 C   0  0  0  0  0  0  0  0  0  0  0  0
  135.3250  123.8860  126.0210 C   0  0  0  0  0  0  0  0  0  0  0  0
  133.7680  122.4240  127.1980 O   0  0  0  0  0  0  0  0  0  0  0  0
  133.3270  121.1010  126.8260 C   0  0  0  0  0  0  0  0  0  0  0  0
  133.9090  120.6280  125.5950 O   0  0  0  0  0  0  0  0  0  0  0  0
  132.9110  126.1970  124.4800 C   0  0  0  0  0  0  0  0  0  0  0  0
  132.0380  125.6780  125.4370 C   0  0  0  0  0  0  0  0  0  0  0  0
  131.4135  122.6365  124.0241 H   0  0  0  0  0  0  0  0  0  0  0  0
  132.9788  123.5557  122.3118 H   0  0  0  0  0  0  0  0  0  0  0  0
  134.2404  127.1232  122.4828 H   0  0  0  0  0  0  0  0  0  0  0  0
  132.7150  125.4410  120.8920 H   0  0  0  0  0  0  0  0  0  0  0  0
  133.8259  126.7708  120.3407 H   0  0  0  0  0  0  0  0  0  0  0  0
  134.5413  123.8270  120.6356 H   0  0  0  0  0  0  0  0  0  0  0  0
  134.2479  124.7414  119.0910 H   0  0  0  0  0  0  0  0  0  0  0  0
  136.5970  124.3900  119.8350 H   0  0  0  0  0  0  0  0  0  0  0  0
  137.5438  125.4790  121.4803 H   0  0  0  0  0  0  0  0  0  0  0  0
  136.4645  126.9171  121.1402 H   0  0  0  0  0  0  0  0  0  0  0  0
  135.6321  124.4337  122.7083 H   0  0  0  0  0  0  0  0  0  0  0  0
  137.0888  126.8534  123.5107 H   0  0  0  0  0  0  0  0  0  0  0  0
  135.5452  126.6256  124.4073 H   0  0  0  0  0  0  0  0  0  0  0  0
  136.8719  123.0612  123.0821 H   0  0  0  0  0  0  0  0  0  0  0  0
  135.5479  120.9551  123.4115 H   0  0  0  0  0  0  0  0  0  0  0  0
  135.2492  124.6961  126.7613 H   0  0  0  0  0  0  0  0  0  0  0  0
  133.6000  120.4033  127.6314 H   0  0  0  0  0  0  0  0  0  0  0  0
  132.2391  121.1531  126.6716 H   0  0  0  0  0  0  0  0  0  0  0  0
  133.3317  127.2042  124.6158 H   0  0  0  0  0  0  0  0  0  0  0  0
  131.7708  126.2721  126.3234 H   0  0  0  0  0  0  0  0  0  0  0  0
  1  2  1  0
  2  3  1  0
  3  4  2  0
  4  5  1  0
  5  6  1  0
  6  7  1  0
  7  8  1  0
  8  9  1  0
  9 10  1  0
 10 11  1  0
 11 12  1  0
 12 13  1  0
 13 14  1  0
 14 15  1  0
 15 16  2  0
 16 17  1  0
 17 18  2  0
 18 19  1  0
 18 20  1  0
 20 21  1  0
 21 22  1  0
  5 23  2  0
 23 24  1  0
 24  2  2  0
 11  6  1  0
 19 14  2  0
 22 17  1  0
  3 25  1  0
  4 26  1  0
  6 27  1  1
  7 28  1  0
  7 29  1  0
  8 30  1  0
  8 31  1  0
  9 32  1  0
 10 33  1  0
 10 34  1  0
 11 35  1  1
 12 36  1  0
 12 37  1  0
 15 38  1  0
 16 39  1  0
 19 40  1  0
 21 41  1  0
 21 42  1  0
 23 43  1  0
 24 44  1  0
M  END
>  <meeko>  (11) 
{"is_sidechain": [false], "free_energy": -9.285, "intermolecular_energy": -10.779, "internal_energy": -1.6}

$$$$
seed-2303
     RDKit          3D

 44 47  0  0  0  0  0  0  0  0999 V2000
  135.8800  121.1270  127.5890 F   0  0  0  0  0  0  0  0  0  0  0  0
  135.6060  121.6930  126.4060 C   0  0  0  0  0  0  0  0  0  0  0  0
  136.6430  121.9710  125.5250 C   0  0  0  0  0  0  0  0  0  0  0  0
  136.3610  122.5630  124.2920 C   0  0  0  0  0  0  0  0  0  0  0  0
  135.0390  122.8750  123.9360 C   0  0  0  0  0  0  0  0  0  0  0  0
  134.6980  123.5340  122.6030 C   0  0  2  0  0  0  0  0  0  0  0  0
  135.2520  122.7370  121.4010 C   0  0  0  0  0  0  0  0  0  0  0  0
  136.4060  123.4560  120.7090 C   0  0  0  0  0  0  0  0  0  0  0  0
  136.0280  124.7820  120.2280 N   0  0  0  0  0  0  0  0  0  0  0  0
  135.1290  125.5190  121.1180 C   0  0  0  0  0  0  0  0  0  0  0  0
  135.1440  125.0200  122.5700 C   0  0  1  0  0  0  0  0  0  0  0  0
  134.2660  125.9140  123.4660 C   0  0  0  0  0  0  0  0  0  0  0  0
  132.8880  125.5950  123.2690 O   0  0  0  0  0  0  0  0  0  0  0  0
  132.0030  126.0320  124.2160 C   0  0  0  0  0  0  0  0  0  0  0  0
  132.3530  125.6890  125.5380 C   0  0  0  0  0  0  0  0  0  0  0  0
  131.5510  126.0640  126.6200 C   0  0  0  0  0  0  0  0  0  0  0  0
  130.4080  126.7800  126.3450 C   0  0  0  0  0  0  0  0  0  0  0  0
  130.0610  127.1170  125.0580 C   0  0  0  0  0  0  0  0  0  0  0  0
  130.8350  126.7580  123.9710 C   0  0  0  0  0  0  0  0  0  0  0  0
  128.8990  127.8210  125.0030 O   0  0  0  0  0  0  0  0  0  0  0  0
  128.5550  127.8900  126.4030 C   0  0  0  0  0  0  0  0  0  0  0  0
  129.5100  127.2300  127.2600 O   0  0  0  0  0  0  0  0  0  0  0  0
  134.0070  122.5860  124.8460 C   0  0  0  0  0  0  0  0  0  0  0  0
  134.2910  121.9950  126.0790 C   0  0  0  0  0  0  0  0  0  0  0  0
  137.6804  121.7263  125.7968 H   0  0  0  0  0  0  0  0  0  0  0  0
  137.1812  122.7867  123.5940 H   0  0  0  0  0  0  0  0  0  0  0  0
  133.6021  123.5217  122.5091 H   0  0  0  0  0  0  0  0  0  0  0  0
  135.6084  121.7599  121.7590 H   0  0  0  0  0  0  0  0  0  0  0  0
  134.4387  122.6256  120.6688 H   0  0  0  0  0  0  0  0  0  0  0  0
  137.2351  123.5628  121.4240 H   0  0  0  0  0  0  0  0  0  0  0  0
  136.7007  122.8544  119.8365 H   0  0  0  0  0  0  0  0  0  0  0  0
  136.8680  125.3290  120.0360 H   0  0  0  0  0  0  0  0  0  0  0  0
  135.4275  126.5777  121.1125 H   0  0  0  0  0  0  0  0  0  0  0  0
  134.1080  125.3661  120.7384 H   0  0  0  0  0  0  0  0  0  0  0  0
  136.1654  125.0815  122.9737 H   0  0  0  0  0  0  0  0  0  0  0  0
  134.5320  125.7472  124.5202 H   0  0  0  0  0  0  0  0  0  0  0  0
  134.4351  126.9685  123.2024 H   0  0  0  0  0  0  0  0  0  0  0  0
  133.2738  125.1159  125.7214 H   0  0  0  0  0  0  0  0  0  0  0  0
  131.8230  125.7970  127.6519 H   0  0  0  0  0  0  0  0  0  0  0  0
  130.5414  127.0345  122.9476 H   0  0  0  0  0  0  0  0  0  0  0  0
  128.4965  128.9486  126.6961 H   0  0  0  0  0  0  0  0  0  0  0  0
  127.5932  127.3709  126.5275 H   0  0  0  0  0  0  0  0  0  0  0  0
  132.9663  122.8276  124.5844 H   0  0  0  0  0  0  0  0  0  0  0  0
  133.4787  121.7704  126.7859 H   0  0  0  0  0  0  0  0  0  0  0  0
  1  2  1  0
  2  3  1  0
  3  4  2  0
  4  5  1  0
  5  6  1  0
  6  7  1  0
  7  8  1  0
  8  9  1  0
  9 10  1  0
 10 11  1  0
 11 12  1  0
 12 13  1  0
 13 14  1  0
 14 15  1  0
 15 16  2  0
 16 17  1  0
 17 18  2  0
 18 19  1  0
 18 20  1  0
 20 21  1  0
 21 22  1  0
  5 23  2  0
 23 24  1  0
 24  2  2  0
 11  6  1  0
 19 14  2  0
 22 17  1  0
  3 25  1  0
  4 26  1  0
  6 27  1  6
  7 28  1  0
  7 29  1  0
  8 30  1  0
  8 31  1  0
  9 32  1  0
 10 33  1  0
 10 34  1  0
 11 35  1  1
 12 36  1  0
 12 37  1  0
 15 38  1  0
 16 39  1  0
 19 40  1  0
 21 41  1  0
 21 42  1  0
 23 43  1  0
 24 44  1  0
M  END
>  <meeko>  (12) 
{"is_sidechain": [false], "free_energy": -9.261, "intermolecular_energy": -11.271, "internal_energy": -1.078}

$$$$
seed-2303
     RDKit          3D

 44 47  0  0  0  0  0  0  0  0999 V2000
  134.3060  125.4320  119.1440 F   0  0  0  0  0  0  0  0  0  0  0  0
  134.3870  125.0510  120.4270 C   0  0  0  0  0  0  0  0  0  0  0  0
  133.8090  125.8420  121.4120 C   0  0  0  0  0  0  0  0  0  0  0  0
  133.8940  125.4490  122.7500 C   0  0  0  0  0  0  0  0  0  0  0  0
  134.5550  124.2620  123.1040 C   0  0  0  0  0  0  0  0  0  0  0  0
  134.6770  123.8110  124.5560 C   0  0  2  0  0  0  0  0  0  0  0  0
  136.1480  123.6150  124.9830 C   0  0  0  0  0  0  0  0  0  0  0  0
  136.5040  122.1450  125.1870 C   0  0  0  0  0  0  0  0  0  0  0  0
  135.6600  121.5020  126.1900 N   0  0  0  0  0  0  0  0  0  0  0  0
  134.2580  121.9250  126.1680 C   0  0  0  0  0  0  0  0  0  0  0  0
  133.8170  122.5500  124.8360 C   0  0  1  0  0  0  0  0  0  0  0  0
  132.3090  122.8620  124.8500 C   0  0  0  0  0  0  0  0  0  0  0  0
  131.8310  122.8930  126.1950 O   0  0  0  0  0  0  0  0  0  0  0  0
  131.2440  124.0530  126.6240 C   0  0  0  0  0  0  0  0  0  0  0  0
  129.9880  123.8730  127.2380 C   0  0  0  0  0  0  0  0  0  0  0  0
  129.2610  124.9610  127.7300 C   0  0  0  0  0  0  0  0  0  0  0  0
  129.8190  126.2120  127.5920 C   0  0  0  0  0  0  0  0  0  0  0  0
  131.0430  126.3930  126.9930 C   0  0  0  0  0  0  0  0  0  0  0  0
  131.7820  125.3360  126.4980 C   0  0  0  0  0  0  0  0  0  0  0  0
  131.4120  127.7020  126.9560 O   0  0  0  0  0  0  0  0  0  0  0  0
  130.2800  128.3230  127.6010 C   0  0  0  0  0  0  0  0  0  0  0  0
  129.2650  127.3820  128.0070 O   0  0  0  0  0  0  0  0  0  0  0  0
  135.1330  123.4810  122.0880 C   0  0  0  0  0  0  0  0  0  0  0  0
  135.0480  123.8760  120.7520 C   0  0  0  0  0  0  0  0  0  0  0  0
  133.2878  126.7718  121.1402 H   0  0  0  0  0  0  0  0  0  0  0  0
  133.4394  126.0745  123.5323 H   0  0  0  0  0  0  0  0  0  0  0  0
  134.2755  124.6229  125.1802 H   0  0  0  0  0  0  0  0  0  0  0  0
  136.8010  124.0314  124.2019 H   0  0  0  0  0  0  0  0  0  0  0  0
  136.2896  124.1308  125.9442 H   0  0  0  0  0  0  0  0  0  0  0  0
  136.3815  121.6158  124.2305 H   0  0  0  0  0  0  0  0  0  0  0  0
  137.5436  122.0980  125.5434 H   0  0  0  0  0  0  0  0  0  0  0  0
  135.7270  120.4880  126.0970 H   0  0  0  0  0  0  0  0  0  0  0  0
  133.6276  121.0449  126.3630 H   0  0  0  0  0  0  0  0  0  0  0  0
  134.1472  122.7030  126.9378 H   0  0  0  0  0  0  0  0  0  0  0  0
  133.9794  121.8340  124.0169 H   0  0  0  0  0  0  0  0  0  0  0  0
  132.1347  123.8404  124.3785 H   0  0  0  0  0  0  0  0  0  0  0  0
  131.7724  122.0796  124.2932 H   0  0  0  0  0  0  0  0  0  0  0  0
  129.5727  122.8587  127.3316 H   0  0  0  0  0  0  0  0  0  0  0  0
  128.2805  124.8228  128.2091 H   0  0  0  0  0  0  0  0  0  0  0  0
  132.7599  125.4989  126.0213 H   0  0  0  0  0  0  0  0  0  0  0  0
  130.6372  128.8574  128.4937 H   0  0  0  0  0  0  0  0  0  0  0  0
  129.8196  129.0009  126.8672 H   0  0  0  0  0  0  0  0  0  0  0  0
  135.6573  122.5497  122.3484 H   0  0  0  0  0  0  0  0  0  0  0  0
  135.5022  123.2595  119.9623 H   0  0  0  0  0  0  0  0  0  0  0  0
  1  2  1  0
  2  3  1  0
  3  4  2  0
  4  5  1  0
  5  6  1  0
  6  7  1  0
  7  8  1  0
  8  9  1  0
  9 10  1  0
 10 11  1  0
 11 12  1  0
 12 13  1  0
 13 14  1  0
 14 15  1  0
 15 16  2  0
 16 17  1  0
 17 18  2  0
 18 19  1  0
 18 20  1  0
 20 21  1  0
 21 22  1  0
  5 23  2  0
 23 24  1  0
 24  2  2  0
 11  6  1  0
 19 14  2  0
 22 17  1  0
  3 25  1  0
  4 26  1  0
  6 27  1  1
  7 28  1  0
  7 29  1  0
  8 30  1  0
  8 31  1  0
  9 32  1  0
 10 33  1  0
 10 34  1  0
 11 35  1  6
 12 36  1  0
 12 37  1  0
 15 38  1  0
 16 39  1  0
 19 40  1  0
 21 41  1  0
 21 42  1  0
 23 43  1  0
 24 44  1  0
M  END
>  <meeko>  (13) 
{"is_sidechain": [false], "free_energy": -9.131, "intermolecular_energy": -11.161, "internal_energy": -1.028}

$$$$
seed-2303
     RDKit          3D

 44 47  0  0  0  0  0  0  0  0999 V2000
  129.9700  128.5200  125.9830 F   0  0  0  0  0  0  0  0  0  0  0  0
  130.6660  127.4140  125.6860 C   0  0  0  0  0  0  0  0  0  0  0  0
  130.8400  127.0520  124.3560 C   0  0  0  0  0  0  0  0  0  0  0  0
  131.5620  125.8990  124.0440 C   0  0  0  0  0  0  0  0  0  0  0  0
  132.1160  125.1060  125.0620 C   0  0  0  0  0  0  0  0  0  0  0  0
  132.8990  123.8330  124.7550 C   0  0  2  0  0  0  0  0  0  0  0  0
  132.1300  122.5610  125.1730 C   0  0  0  0  0  0  0  0  0  0  0  0
  132.7590  121.8700  126.3790 C   0  0  0  0  0  0  0  0  0  0  0  0
  134.1490  121.4920  126.1410 N   0  0  0  0  0  0  0  0  0  0  0  0
  134.9200  122.4630  125.3630 C   0  0  0  0  0  0  0  0  0  0  0  0
  134.3240  123.8790  125.3690 C   0  0  1  0  0  0  0  0  0  0  0  0
  135.2480  124.8650  124.6290 C   0  0  0  0  0  0  0  0  0  0  0  0
  135.9990  124.1730  123.6320 O   0  0  0  0  0  0  0  0  0  0  0  0
  135.6080  124.3340  122.3300 C   0  0  0  0  0  0  0  0  0  0  0  0
  134.9620  125.5600  122.0670 C   0  0  0  0  0  0  0  0  0  0  0  0
  134.5030  125.8750  120.7850 C   0  0  0  0  0  0  0  0  0  0  0  0
  134.7050  124.9440  119.7910 C   0  0  0  0  0  0  0  0  0  0  0  0
  135.3330  123.7470  120.0420 C   0  0  0  0  0  0  0  0  0  0  0  0
  135.7960  123.4100  121.3000 C   0  0  0  0  0  0  0  0  0  0  0  0
  135.4320  122.9710  118.9290 O   0  0  0  0  0  0  0  0  0  0  0  0
  134.7950  123.8180  117.9490 C   0  0  0  0  0  0  0  0  0  0  0  0
  134.3310  125.0720  118.4910 O   0  0  0  0  0  0  0  0  0  0  0  0
  131.9230  125.4920  126.4000 C   0  0  0  0  0  0  0  0  0  0  0  0
  131.2000  126.6440  126.7100 C   0  0  0  0  0  0  0  0  0  0  0  0
  130.4113  127.6704  123.5536 H   0  0  0  0  0  0  0  0  0  0  0  0
  131.6982  125.6090  122.9917 H   0  0  0  0  0  0  0  0  0  0  0  0
  133.0165  123.7824  123.6625 H   0  0  0  0  0  0  0  0  0  0  0  0
  131.0964  122.8402  125.4254 H   0  0  0  0  0  0  0  0  0  0  0  0
  132.1630  121.8569  124.3285 H   0  0  0  0  0  0  0  0  0  0  0  0
  132.7215  122.5556  127.2384 H   0  0  0  0  0  0  0  0  0  0  0  0
  132.1893  120.9492  126.5731 H   0  0  0  0  0  0  0  0  0  0  0  0
  134.6100  121.3020  127.0320 H   0  0  0  0  0  0  0  0  0  0  0  0
  135.9363  122.5131  125.7810 H   0  0  0  0  0  0  0  0  0  0  0  0
  134.9095  122.1164  124.3191 H   0  0  0  0  0  0  0  0  0  0  0  0
  134.2421  124.2449  126.4031 H   0  0  0  0  0  0  0  0  0  0  0  0
  134.6391  125.6460  124.1502 H   0  0  0  0  0  0  0  0  0  0  0  0
  135.9404  125.3231  125.3506 H   0  0  0  0  0  0  0  0  0  0  0  0
  134.8169  126.2808  122.8852 H   0  0  0  0  0  0  0  0  0  0  0  0
  133.9993  126.8308  120.5780 H   0  0  0  0  0  0  0  0  0  0  0  0
  136.2953  122.4472  121.4835 H   0  0  0  0  0  0  0  0  0  0  0  0
  135.5189  124.0306  117.1485 H   0  0  0  0  0  0  0  0  0  0  0  0
  133.9116  123.2778  117.5777 H   0  0  0  0  0  0  0  0  0  0  0  0
  132.3461  124.8798  127.2101 H   0  0  0  0  0  0  0  0  0  0  0  0
  131.0540  126.9403  127.7592 H   0  0  0  0  0  0  0  0  0  0  0  0
  1  2  1  0
  2  3  1  0
  3  4  2  0
  4  5  1  0
  5  6  1  0
  6  7  1  0
  7  8  1  0
  8  9  1  0
  9 10  1  0
 10 11  1  0
 11 12  1  0
 12 13  1  0
 13 14  1  0
 14 15  1  0
 15 16  2  0
 16 17  1  0
 17 18  2  0
 18 19  1  0
 18 20  1  0
 20 21  1  0
 21 22  1  0
  5 23  2  0
 23 24  1  0
 24  2  2  0
 11  6  1  0
 19 14  2  0
 22 17  1  0
  3 25  1  0
  4 26  1  0
  6 27  1  6
  7 28  1  0
  7 29  1  0
  8 30  1  0
  8 31  1  0
  9 32  1  0
 10 33  1  0
 10 34  1  0
 11 35  1  1
 12 36  1  0
 12 37  1  0
 15 38  1  0
 16 39  1  0
 19 40  1  0
 21 41  1  0
 21 42  1  0
 23 43  1  0
 24 44  1  0
M  END
>  <meeko>  (14) 
{"is_sidechain": [false], "free_energy": -9.116, "intermolecular_energy": -10.915, "internal_energy": -1.256}

$$$$
seed-2303
     RDKit          3D

 44 47  0  0  0  0  0  0  0  0999 V2000
  135.2580  123.6630  117.7200 F   0  0  0  0  0  0  0  0  0  0  0  0
  135.1540  124.0560  118.9970 C   0  0  0  0  0  0  0  0  0  0  0  0
  135.7320  123.2850  119.9980 C   0  0  0  0  0  0  0  0  0  0  0  0
  135.6240  123.6900  121.3300 C   0  0  0  0  0  0  0  0  0  0  0  0
  134.9390  124.8690  121.6640 C   0  0  0  0  0  0  0  0  0  0  0  0
  134.7900  125.3330  123.1100 C   0  0  2  0  0  0  0  0  0  0  0  0
  136.0800  125.9940  123.6440 C   0  0  0  0  0  0  0  0  0  0  0  0
  136.7860  125.1320  124.6860 C   0  0  0  0  0  0  0  0  0  0  0  0
  135.9330  124.8320  125.8320 N   0  0  0  0  0  0  0  0  0  0  0  0
  134.5300  124.5790  125.4970 C   0  0  0  0  0  0  0  0  0  0  0  0
  134.3020  124.1820  124.0310 C   0  0  1  0  0  0  0  0  0  0  0  0
  132.8250  123.8230  123.7830 C   0  0  0  0  0  0  0  0  0  0  0  0
  132.0760  123.9890  124.9870 O   0  0  0  0  0  0  0  0  0  0  0  0
  131.3850  125.1610  125.1370 C   0  0  0  0  0  0  0  0  0  0  0  0
  131.2150  125.8890  123.9430 C   0  0  0  0  0  0  0  0  0  0  0  0
  130.5300  127.1080  123.9300 C   0  0  0  0  0  0  0  0  0  0  0  0
  130.0300  127.5680  125.1270 C   0  0  0  0  0  0  0  0  0  0  0  0
  130.1940  126.8620  126.2950 C   0  0  0  0  0  0  0  0  0  0  0  0
  130.8660  125.6560  126.3360 C   0  0  0  0  0  0  0  0  0  0  0  0
  129.6270  127.4880  127.3620 O   0  0  0  0  0  0  0  0  0  0  0  0
  129.0870  128.6680  126.7300 C   0  0  0  0  0  0  0  0  0  0  0  0
  129.3400  128.7240  125.3110 O   0  0  0  0  0  0  0  0  0  0  0  0
  134.3600  125.6300  120.6330 C   0  0  0  0  0  0  0  0  0  0  0  0
  134.4690  125.2230  119.3020 C   0  0  0  0  0  0  0  0  0  0  0  0
  136.2715  122.3610  119.7427 H   0  0  0  0  0  0  0  0  0  0  0  0
  136.0794  123.0802  122.1242 H   0  0  0  0  0  0  0  0  0  0  0  0
  134.0115  126.1101  123.1211 H   0  0  0  0  0  0  0  0  0  0  0  0
  136.7661  126.1620  122.8008 H   0  0  0  0  0  0  0  0  0  0  0  0
  135.7968  126.9406  124.1275 H   0  0  0  0  0  0  0  0  0  0  0  0
  137.0895  124.1857  124.2144 H   0  0  0  0  0  0  0  0  0  0  0  0
  137.6554  125.6965  125.0542 H   0  0  0  0  0  0  0  0  0  0  0  0
  136.3220  124.0450  126.3530 H   0  0  0  0  0  0  0  0  0  0  0  0
  134.1625  123.7639  126.1377 H   0  0  0  0  0  0  0  0  0  0  0  0
  133.9877  125.5220  125.6605 H   0  0  0  0  0  0  0  0  0  0  0  0
  134.8859  123.2801  123.7952 H   0  0  0  0  0  0  0  0  0  0  0  0
  132.4150  124.4830  123.0044 H   0  0  0  0  0  0  0  0  0  0  0  0
  132.7570  122.7750  123.4557 H   0  0  0  0  0  0  0  0  0  0  0  0
  131.6284  125.4915  123.0043 H   0  0  0  0  0  0  0  0  0  0  0  0
  130.3959  127.6776  122.9986 H   0  0  0  0  0  0  0  0  0  0  0  0
  130.9883  125.1044  127.2798 H   0  0  0  0  0  0  0  0  0  0  0  0
  127.9990  128.6830  126.8911 H   0  0  0  0  0  0  0  0  0  0  0  0
  129.5863  129.5369  127.1836 H   0  0  0  0  0  0  0  0  0  0  0  0
  133.8162  126.5544  120.8774 H   0  0  0  0  0  0  0  0  0  0  0  0
  134.0146  125.8238  118.5004 H   0  0  0  0  0  0  0  0  0  0  0  0
  1  2  1  0
  2  3  1  0
  3  4  2  0
  4  5  1  0
  5  6  1  0
  6  7  1  0
  7  8  1  0
  8  9  1  0
  9 10  1  0
 10 11  1  0
 11 12  1  0
 12 13  1  0
 13 14  1  0
 14 15  1  0
 15 16  2  0
 16 17  1  0
 17 18  2  0
 18 19  1  0
 18 20  1  0
 20 21  1  0
 21 22  1  0
  5 23  2  0
 23 24  1  0
 24  2  2  0
 11  6  1  0
 19 14  2  0
 22 17  1  0
  3 25  1  0
  4 26  1  0
  6 27  1  6
  7 28  1  0
  7 29  1  0
  8 30  1  0
  8 31  1  0
  9 32  1  0
 10 33  1  0
 10 34  1  0
 11 35  1  6
 12 36  1  0
 12 37  1  0
 15 38  1  0
 16 39  1  0
 19 40  1  0
 21 41  1  0
 21 42  1  0
 23 43  1  0
 24 44  1  0
M  END
>  <meeko>  (15) 
{"is_sidechain": [false], "free_energy": -8.976, "intermolecular_energy": -11.229, "internal_energy": -0.769}

$$$$
seed-2303
     RDKit          3D

 44 47  0  0  0  0  0  0  0  0999 V2000
  129.1050  126.6380  128.0360 F   0  0  0  0  0  0  0  0  0  0  0  0
  129.9950  125.8380  127.4320 C   0  0  0  0  0  0  0  0  0  0  0  0
  129.7790  124.4670  127.4140 C   0  0  0  0  0  0  0  0  0  0  0  0
  130.7060  123.6300  126.7880 C   0  0  0  0  0  0  0  0  0  0  0  0
  131.8500  124.1660  126.1740 C   0  0  0  0  0  0  0  0  0  0  0  0
  132.8880  123.2800  125.4930 C   0  0  2  0  0  0  0  0  0  0  0  0
  132.7900  121.8090  125.9540 C   0  0  0  0  0  0  0  0  0  0  0  0
  133.9710  121.3920  126.8240 C   0  0  0  0  0  0  0  0  0  0  0  0
  135.2520  121.5610  126.1440 N   0  0  0  0  0  0  0  0  0  0  0  0
  135.3420  122.7570  125.3040 C   0  0  0  0  0  0  0  0  0  0  0  0
  134.3230  123.8480  125.6630 C   0  0  1  0  0  0  0  0  0  0  0  0
  134.5540  125.1140  124.8170 C   0  0  0  0  0  0  0  0  0  0  0  0
  135.6290  124.8990  123.9030 O   0  0  0  0  0  0  0  0  0  0  0  0
  135.3230  124.8780  122.5690 C   0  0  0  0  0  0  0  0  0  0  0  0
  134.5270  125.9600  122.1420 C   0  0  0  0  0  0  0  0  0  0  0  0
  134.1290  126.0830  120.8070 C   0  0  0  0  0  0  0  0  0  0  0  0
  134.5440  125.1080  119.9280 C   0  0  0  0  0  0  0  0  0  0  0  0
  135.3190  124.0500  120.3400 C   0  0  0  0  0  0  0  0  0  0  0  0
  135.7260  123.9040  121.6530 C   0  0  0  0  0  0  0  0  0  0  0  0
  135.6190  123.2000  119.3210 O   0  0  0  0  0  0  0  0  0  0  0  0
  134.9430  123.8470  118.2210 C   0  0  0  0  0  0  0  0  0  0  0  0
  134.2590  125.0580  118.6010 O   0  0  0  0  0  0  0  0  0  0  0  0
  132.0470  125.5580  126.2090 C   0  0  0  0  0  0  0  0  0  0  0  0
  131.1200  126.3920  126.8370 C   0  0  0  0  0  0  0  0  0  0  0  0
  128.8830  124.0419  127.8899 H   0  0  0  0  0  0  0  0  0  0  0  0
  130.5387  122.5429  126.7758 H   0  0  0  0  0  0  0  0  0  0  0  0
  132.6610  123.2870  124.4167 H   0  0  0  0  0  0  0  0  0  0  0  0
  131.8629  121.6811  126.5321 H   0  0  0  0  0  0  0  0  0  0  0  0
  132.7955  121.1750  125.0551 H   0  0  0  0  0  0  0  0  0  0  0  0
  133.9718  122.0066  127.7363 H   0  0  0  0  0  0  0  0  0  0  0  0
  133.8542  120.3234  127.0572 H   0  0  0  0  0  0  0  0  0  0  0  0
  136.0090  121.5480  126.8280 H   0  0  0  0  0  0  0  0  0  0  0  0
  136.3524  123.1788  125.4092 H   0  0  0  0  0  0  0  0  0  0  0  0
  135.1213  122.4408  124.2738 H   0  0  0  0  0  0  0  0  0  0  0  0
  134.4531  124.1473  126.7135 H   0  0  0  0  0  0  0  0  0  0  0  0
  133.6384  125.3485  124.2543 H   0  0  0  0  0  0  0  0  0  0  0  0
  134.8071  125.9526  125.4824 H   0  0  0  0  0  0  0  0  0  0  0  0
  134.2133  126.7211  122.8717 H   0  0  0  0  0  0  0  0  0  0  0  0
  133.5079  126.9268  120.4719 H   0  0  0  0  0  0  0  0  0  0  0  0
  136.3456  123.0505  121.9653 H   0  0  0  0  0  0  0  0  0  0  0  0
  135.6885  124.0947  117.4510 H   0  0  0  0  0  0  0  0  0  0  0  0
  134.1802  123.1459  117.8515 H   0  0  0  0  0  0  0  0  0  0  0  0
  132.9399  125.9939  125.7371 H   0  0  0  0  0  0  0  0  0  0  0  0
  131.2800  127.4801  126.8601 H   0  0  0  0  0  0  0  0  0  0  0  0
  1  2  1  0
  2  3  1  0
  3  4  2  0
  4  5  1  0
  5  6  1  0
  6  7  1  0
  7  8  1  0
  8  9  1  0
  9 10  1  0
 10 11  1  0
 11 12  1  0
 12 13  1  0
 13 14  1  0
 14 15  1  0
 15 16  2  0
 16 17  1  0
 17 18  2  0
 18 19  1  0
 18 20  1  0
 20 21  1  0
 21 22  1  0
  5 23  2  0
 23 24  1  0
 24  2  2  0
 11  6  1  0
 19 14  2  0
 22 17  1  0
  3 25  1  0
  4 26  1  0
  6 27  1  6
  7 28  1  0
  7 29  1  0
  8 30  1  0
  8 31  1  0
  9 32  1  0
 10 33  1  0
 10 34  1  0
 11 35  1  1
 12 36  1  0
 12 37  1  0
 15 38  1  0
 16 39  1  0
 19 40  1  0
 21 41  1  0
 21 42  1  0
 23 43  1  0
 24 44  1  0
M  END
>  <meeko>  (16) 
{"is_sidechain": [false], "free_energy": -8.81, "intermolecular_energy": -11.62, "internal_energy": -0.174}

$$$$
seed-2303
     RDKit          3D

 44 47  0  0  0  0  0  0  0  0999 V2000
  134.7340  124.8630  118.0660 F   0  0  0  0  0  0  0  0  0  0  0  0
  134.7540  124.6680  119.3920 C   0  0  0  0  0  0  0  0  0  0  0  0
  134.1790  125.6140  120.2300 C   0  0  0  0  0  0  0  0  0  0  0  0
  134.2000  125.4150  121.6120 C   0  0  0  0  0  0  0  0  0  0  0  0
  134.7930  124.2660  122.1590 C   0  0  0  0  0  0  0  0  0  0  0  0
  134.8450  124.0240  123.6640 C   0  0  2  0  0  0  0  0  0  0  0  0
  136.1910  123.4110  124.1100 C   0  0  0  0  0  0  0  0  0  0  0  0
  136.0510  121.9560  124.5470 C   0  0  0  0  0  0  0  0  0  0  0  0
  135.1030  121.7930  125.6450 N   0  0  0  0  0  0  0  0  0  0  0  0
  133.9210  122.6540  125.5620 C   0  0  0  0  0  0  0  0  0  0  0  0
  133.6340  123.1820  124.1490 C   0  0  1  0  0  0  0  0  0  0  0  0
  132.3180  123.9820  124.1190 C   0  0  0  0  0  0  0  0  0  0  0  0
  132.2040  124.7760  125.3000 O   0  0  0  0  0  0  0  0  0  0  0  0
  130.9850  124.8020  125.9210 C   0  0  0  0  0  0  0  0  0  0  0  0
  130.2020  125.9330  125.6100 C   0  0  0  0  0  0  0  0  0  0  0  0
  128.9300  126.1060  126.1640 C   0  0  0  0  0  0  0  0  0  0  0  0
  128.4740  125.1320  127.0250 C   0  0  0  0  0  0  0  0  0  0  0  0
  129.2340  124.0290  127.3320 C   0  0  0  0  0  0  0  0  0  0  0  0
  130.4940  123.8330  126.7990 C   0  0  0  0  0  0  0  0  0  0  0  0
  128.6030  123.1910  128.1980 O   0  0  0  0  0  0  0  0  0  0  0  0
  127.3580  123.8940  128.3980 C   0  0  0  0  0  0  0  0  0  0  0  0
  127.2700  125.1270  127.6560 O   0  0  0  0  0  0  0  0  0  0  0  0
  135.3710  123.3250  121.2890 C   0  0  0  0  0  0  0  0  0  0  0  0
  135.3500  123.5260  119.9080 C   0  0  0  0  0  0  0  0  0  0  0  0
  133.7097  126.5148  119.8078 H   0  0  0  0  0  0  0  0  0  0  0  0
  133.7480  126.1650  122.2778 H   0  0  0  0  0  0  0  0  0  0  0  0
  134.7728  125.0080  124.1503 H   0  0  0  0  0  0  0  0  0  0  0  0
  136.8979  123.4607  123.2686 H   0  0  0  0  0  0  0  0  0  0  0  0
  136.5521  123.9876  124.9744 H   0  0  0  0  0  0  0  0  0  0  0  0
  135.7035  121.3615  123.6892 H   0  0  0  0  0  0  0  0  0  0  0  0
  137.0355  121.6161  124.9009 H   0  0  0  0  0  0  0  0  0  0  0  0
  134.8260  120.8140  125.7160 H   0  0  0  0  0  0  0  0  0  0  0  0
  133.0477  122.0769  125.9001 H   0  0  0  0  0  0  0  0  0  0  0  0
  134.1193  123.5306  126.1963 H   0  0  0  0  0  0  0  0  0  0  0  0
  133.5016  122.3375  123.4567 H   0  0  0  0  0  0  0  0  0  0  0  0
  132.3104  124.6383  123.2363 H   0  0  0  0  0  0  0  0  0  0  0  0
  131.4704  123.2825  124.0701 H   0  0  0  0  0  0  0  0  0  0  0  0
  130.5988  126.6920  124.9198 H   0  0  0  0  0  0  0  0  0  0  0  0
  128.3166  126.9864  125.9216 H   0  0  0  0  0  0  0  0  0  0  0  0
  131.0894  122.9449  127.0572 H   0  0  0  0  0  0  0  0  0  0  0  0
  126.5330  123.2381  128.0831 H   0  0  0  0  0  0  0  0  0  0  0  0
  127.2997  124.1530  129.4655 H   0  0  0  0  0  0  0  0  0  0  0  0
  135.8444  122.4215  121.7007 H   0  0  0  0  0  0  0  0  0  0  0  0
  135.8027  122.7844  119.2334 H   0  0  0  0  0  0  0  0  0  0  0  0
  1  2  1  0
  2  3  1  0
  3  4  2  0
  4  5  1  0
  5  6  1  0
  6  7  1  0
  7  8  1  0
  8  9  1  0
  9 10  1  0
 10 11  1  0
 11 12  1  0
 12 13  1  0
 13 14  1  0
 14 15  1  0
 15 16  2  0
 16 17  1  0
 17 18  2  0
 18 19  1  0
 18 20  1  0
 20 21  1  0
 21 22  1  0
  5 23  2  0
 23 24  1  0
 24  2  2  0
 11  6  1  0
 19 14  2  0
 22 17  1  0
  3 25  1  0
  4 26  1  0
  6 27  1  1
  7 28  1  0
  7 29  1  0
  8 30  1  0
  8 31  1  0
  9 32  1  0
 10 33  1  0
 10 34  1  0
 11 35  1  6
 12 36  1  0
 12 37  1  0
 15 38  1  0
 16 39  1  0
 19 40  1  0
 21 41  1  0
 21 42  1  0
 23 43  1  0
 24 44  1  0
M  END
>  <meeko>  (17) 
{"is_sidechain": [false], "free_energy": -8.76, "intermolecular_energy": -11.115, "internal_energy": -0.617}

$$$$
seed-2303
     RDKit          3D

 44 47  0  0  0  0  0  0  0  0999 V2000
  133.1270  129.6680  129.0900 F   0  0  0  0  0  0  0  0  0  0  0  0
  132.2080  128.8350  128.5840 C   0  0  0  0  0  0  0  0  0  0  0  0
  131.2210  128.3210  129.4140 C   0  0  0  0  0  0  0  0  0  0  0  0
  130.2630  127.4500  128.8900 C   0  0  0  0  0  0  0  0  0  0  0  0
  130.2890  127.0940  127.5320 C   0  0  0  0  0  0  0  0  0  0  0  0
  129.2670  126.1350  126.9300 C   0  0  2  0  0  0  0  0  0  0  0  0
  127.8150  126.5980  127.1850 C   0  0  0  0  0  0  0  0  0  0  0  0
  127.0860  125.7040  128.1830 C   0  0  0  0  0  0  0  0  0  0  0  0
  127.0400  124.3090  127.7510 N   0  0  0  0  0  0  0  0  0  0  0  0
  128.2580  123.8360  127.0900 C   0  0  0  0  0  0  0  0  0  0  0  0
  129.5040  124.6770  127.4040 C   0  0  1  0  0  0  0  0  0  0  0  0
  130.7600  124.0530  126.7690 C   0  0  0  0  0  0  0  0  0  0  0  0
  130.7290  124.2310  125.3530 O   0  0  0  0  0  0  0  0  0  0  0  0
  131.8720  124.6880  124.7550 C   0  0  0  0  0  0  0  0  0  0  0  0
  133.0340  124.5450  125.5410 C   0  0  0  0  0  0  0  0  0  0  0  0
  134.2820  124.9640  125.0700 C   0  0  0  0  0  0  0  0  0  0  0  0
  134.3320  125.5210  123.8120 C   0  0  0  0  0  0  0  0  0  0  0  0
  133.2020  125.6640  123.0420 C   0  0  0  0  0  0  0  0  0  0  0  0
  131.9570  125.2590  123.4830 C   0  0  0  0  0  0  0  0  0  0  0  0
  133.4670  126.2350  121.8360 O   0  0  0  0  0  0  0  0  0  0  0  0
  134.8930  126.4340  121.9360 C   0  0  0  0  0  0  0  0  0  0  0  0
  135.4470  125.9830  123.1880 O   0  0  0  0  0  0  0  0  0  0  0  0
  131.3020  127.6250  126.7130 C   0  0  0  0  0  0  0  0  0  0  0  0
  132.2590  128.4950  127.2390 C   0  0  0  0  0  0  0  0  0  0  0  0
  131.1935  128.5981  130.4782 H   0  0  0  0  0  0  0  0  0  0  0  0
  129.4817  127.0396  129.5466 H   0  0  0  0  0  0  0  0  0  0  0  0
  129.4142  126.1495  125.8400 H   0  0  0  0  0  0  0  0  0  0  0  0
  127.8358  127.6245  127.5799 H   0  0  0  0  0  0  0  0  0  0  0  0
  127.2733  126.5446  126.2291 H   0  0  0  0  0  0  0  0  0  0  0  0
  127.6064  125.7572  129.1507 H   0  0  0  0  0  0  0  0  0  0  0  0
  126.0499  126.0649  128.2621 H   0  0  0  0  0  0  0  0  0  0  0  0
  126.8100  123.7120  128.5460 H   0  0  0  0  0  0  0  0  0  0  0  0
  128.4479  122.8018  127.4131 H   0  0  0  0  0  0  0  0  0  0  0  0
  128.0843  123.9153  126.0067 H   0  0  0  0  0  0  0  0  0  0  0  0
  129.6786  124.6924  128.4899 H   0  0  0  0  0  0  0  0  0  0  0  0
  131.6565  124.5415  127.1783 H   0  0  0  0  0  0  0  0  0  0  0  0
  130.7848  122.9774  126.9980 H   0  0  0  0  0  0  0  0  0  0  0  0
  132.9572  124.0959  126.5422 H   0  0  0  0  0  0  0  0  0  0  0  0
  135.1896  124.8528  125.6815 H   0  0  0  0  0  0  0  0  0  0  0  0
  131.0631  125.3820  122.8539 H   0  0  0  0  0  0  0  0  0  0  0  0
  135.3804  125.8810  121.1195 H   0  0  0  0  0  0  0  0  0  0  0  0
  135.0754  127.5168  121.8712 H   0  0  0  0  0  0  0  0  0  0  0  0
  131.3405  127.3522  125.6481 H   0  0  0  0  0  0  0  0  0  0  0  0
  133.0474  128.9079  126.5926 H   0  0  0  0  0  0  0  0  0  0  0  0
  1  2  1  0
  2  3  1  0
  3  4  2  0
  4  5  1  0
  5  6  1  0
  6  7  1  0
  7  8  1  0
  8  9  1  0
  9 10  1  0
 10 11  1  0
 11 12  1  0
 12 13  1  0
 13 14  1  0
 14 15  1  0
 15 16  2  0
 16 17  1  0
 17 18  2  0
 18 19  1  0
 18 20  1  0
 20 21  1  0
 21 22  1  0
  5 23  2  0
 23 24  1  0
 24  2  2  0
 11  6  1  0
 19 14  2  0
 22 17  1  0
  3 25  1  0
  4 26  1  0
  6 27  1  6
  7 28  1  0
  7 29  1  0
  8 30  1  0
  8 31  1  0
  9 32  1  0
 10 33  1  0
 10 34  1  0
 11 35  1  1
 12 36  1  0
 12 37  1  0
 15 38  1  0
 16 39  1  0
 19 40  1  0
 21 41  1  0
 21 42  1  0
 23 43  1  0
 24 44  1  0
M  END
>  <meeko>  (18) 
{"is_sidechain": [false], "free_energy": -8.747, "intermolecular_energy": -10.369, "internal_energy": -1.347}

$$$$
seed-2303
     RDKit          3D

 44 47  0  0  0  0  0  0  0  0999 V2000
  133.0140  129.4030  128.6890 F   0  0  0  0  0  0  0  0  0  0  0  0
  131.9880  128.5960  128.3880 C   0  0  0  0  0  0  0  0  0  0  0  0
  131.1090  128.2060  129.3900 C   0  0  0  0  0  0  0  0  0  0  0  0
  130.0390  127.3630  129.0810 C   0  0  0  0  0  0  0  0  0  0  0  0
  129.8450  126.9110  127.7650 C   0  0  0  0  0  0  0  0  0  0  0  0
  128.6950  125.9800  127.3960 C   0  0  2  0  0  0  0  0  0  0  0  0
  127.4040  126.3100  128.1770 C   0  0  0  0  0  0  0  0  0  0  0  0
  127.0630  125.2430  129.2140 C   0  0  0  0  0  0  0  0  0  0  0  0
  126.8970  123.9200  128.6180 N   0  0  0  0  0  0  0  0  0  0  0  0
  127.8320  123.6200  127.5320 C   0  0  0  0  0  0  0  0  0  0  0  0
  129.0990  124.4880  127.5440 C   0  0  1  0  0  0  0  0  0  0  0  0
  130.0820  124.0380  126.4470 C   0  0  0  0  0  0  0  0  0  0  0  0
  130.8330  122.9110  126.9000 O   0  0  0  0  0  0  0  0  0  0  0  0
  132.1630  122.8770  126.5820 C   0  0  0  0  0  0  0  0  0  0  0  0
  132.7430  124.1470  126.3820 C   0  0  0  0  0  0  0  0  0  0  0  0
  134.0950  124.2810  126.0510 C   0  0  0  0  0  0  0  0  0  0  0  0
  134.8360  123.1270  125.9280 C   0  0  0  0  0  0  0  0  0  0  0  0
  134.2760  121.8870  126.1210 C   0  0  0  0  0  0  0  0  0  0  0  0
  132.9430  121.7260  126.4480 C   0  0  0  0  0  0  0  0  0  0  0  0
  135.1760  120.8810  125.9520 O   0  0  0  0  0  0  0  0  0  0  0  0
  136.3660  121.6320  125.6320 C   0  0  0  0  0  0  0  0  0  0  0  0
  136.1570  123.0580  125.6150 O   0  0  0  0  0  0  0  0  0  0  0  0
  130.7500  127.3180  126.7700 C   0  0  0  0  0  0  0  0  0  0  0  0
  131.8190  128.1600  127.0820 C   0  0  0  0  0  0  0  0  0  0  0  0
  131.2546  128.5591  130.4215 H   0  0  0  0  0  0  0  0  0  0  0  0
  129.3432  127.0508  129.8737 H   0  0  0  0  0  0  0  0  0  0  0  0
  128.4700  126.1523  126.3331 H   0  0  0  0  0  0  0  0  0  0  0  0
  127.5388  127.2727  128.6918 H   0  0  0  0  0  0  0  0  0  0  0  0
  126.5760  126.3522  127.4541 H   0  0  0  0  0  0  0  0  0  0  0  0
  127.8754  125.1975  129.9543 H   0  0  0  0  0  0  0  0  0  0  0  0
  126.1071  125.5227  129.6810 H   0  0  0  0  0  0  0  0  0  0  0  0
  126.9540  123.2070  129.3460 H   0  0  0  0  0  0  0  0  0  0  0  0
  128.1338  122.5656  127.6162 H   0  0  0  0  0  0  0  0  0  0  0  0
  127.3066  123.8350  126.5898 H   0  0  0  0  0  0  0  0  0  0  0  0
  129.6244  124.3663  128.5027 H   0  0  0  0  0  0  0  0  0  0  0  0
  129.5187  123.7617  125.5435 H   0  0  0  0  0  0  0  0  0  0  0  0
  130.7713  124.8639  126.2173 H   0  0  0  0  0  0  0  0  0  0  0  0
  132.1209  125.0479  126.4883 H   0  0  0  0  0  0  0  0  0  0  0  0
  134.5492  125.2706  125.8948 H   0  0  0  0  0  0  0  0  0  0  0  0
  132.5109  120.7255  126.5977 H   0  0  0  0  0  0  0  0  0  0  0  0
  137.1359  121.4016  126.3831 H   0  0  0  0  0  0  0  0  0  0  0  0
  136.6724  121.3371  124.6175 H   0  0  0  0  0  0  0  0  0  0  0  0
  130.6148  126.9698  125.7353 H   0  0  0  0  0  0  0  0  0  0  0  0
  132.5225  128.4756  126.2975 H   0  0  0  0  0  0  0  0  0  0  0  0
  1  2  1  0
  2  3  1  0
  3  4  2  0
  4  5  1  0
  5  6  1  0
  6  7  1  0
  7  8  1  0
  8  9  1  0
  9 10  1  0
 10 11  1  0
 11 12  1  0
 12 13  1  0
 13 14  1  0
 14 15  1  0
 15 16  2  0
 16 17  1  0
 17 18  2  0
 18 19  1  0
 18 20  1  0
 20 21  1  0
 21 22  1  0
  5 23  2  0
 23 24  1  0
 24  2  2  0
 11  6  1  0
 19 14  2  0
 22 17  1  0
  3 25  1  0
  4 26  1  0
  6 27  1  6
  7 28  1  0
  7 29  1  0
  8 30  1  0
  8 31  1  0
  9 32  1  0
 10 33  1  0
 10 34  1  0
 11 35  1  1
 12 36  1  0
 12 37  1  0
 15 38  1  0
 16 39  1  0
 19 40  1  0
 21 41  1  0
 21 42  1  0
 23 43  1  0
 24 44  1  0
M  END
>  <meeko>  (19) 
{"is_sidechain": [false], "free_energy": -8.746, "intermolecular_energy": -10.842, "internal_energy": -0.872}

$$$$
seed-2303
     RDKit          3D

 44 47  0  0  0  0  0  0  0  0999 V2000
  135.6220  124.0090  118.7090 F   0  0  0  0  0  0  0  0  0  0  0  0
  135.6650  123.9080  120.0450 C   0  0  0  0  0  0  0  0  0  0  0  0
  136.0510  125.0070  120.8010 C   0  0  0  0  0  0  0  0  0  0  0  0
  136.1000  124.9040  122.1930 C   0  0  0  0  0  0  0  0  0  0  0  0
  135.7600  123.7010  122.8320 C   0  0  0  0  0  0  0  0  0  0  0  0
  135.8160  123.5510  124.3490 C   0  0  2  0  0  0  0  0  0  0  0  0
  136.4500  122.2090  124.7780 C   0  0  0  0  0  0  0  0  0  0  0  0
  135.4290  121.2500  125.3810 C   0  0  0  0  0  0  0  0  0  0  0  0
  134.7530  121.8150  126.5460 N   0  0  0  0  0  0  0  0  0  0  0  0
  134.4480  123.2430  126.4380 C   0  0  0  0  0  0  0  0  0  0  0  0
  134.4210  123.7670  124.9950 C   0  0  1  0  0  0  0  0  0  0  0  0
  133.9820  125.2430  124.9560 C   0  0  0  0  0  0  0  0  0  0  0  0
  133.1270  125.5260  126.0640 O   0  0  0  0  0  0  0  0  0  0  0  0
  131.9060  126.0800  125.7860 C   0  0  0  0  0  0  0  0  0  0  0  0
  131.2520  126.6290  126.9080 C   0  0  0  0  0  0  0  0  0  0  0  0
  129.9970  127.2330  126.7890 C   0  0  0  0  0  0  0  0  0  0  0  0
  129.4250  127.2690  125.5370 C   0  0  0  0  0  0  0  0  0  0  0  0
  130.0580  126.7340  124.4400 C   0  0  0  0  0  0  0  0  0  0  0  0
  131.2990  126.1320  124.5300 C   0  0  0  0  0  0  0  0  0  0  0  0
  129.3260  126.8720  123.3020 O   0  0  0  0  0  0  0  0  0  0  0  0
  128.1610  127.5570  123.8090 C   0  0  0  0  0  0  0  0  0  0  0  0
  128.2180  127.8120  125.2270 O   0  0  0  0  0  0  0  0  0  0  0  0
  135.3760  122.6020  122.0430 C   0  0  0  0  0  0  0  0  0  0  0  0
  135.3290  122.7060  120.6520 C   0  0  0  0  0  0  0  0  0  0  0  0
  136.3166  125.9530  120.3065 H   0  0  0  0  0  0  0  0  0  0  0  0
  136.4076  125.7727  122.7937 H   0  0  0  0  0  0  0  0  0  0  0  0
  136.4765  124.3451  124.7273 H   0  0  0  0  0  0  0  0  0  0  0  0
  136.9025  121.7339  123.8951 H   0  0  0  0  0  0  0  0  0  0  0  0
  137.2033  122.4255  125.5498 H   0  0  0  0  0  0  0  0  0  0  0  0
  134.6749  121.0109  124.6167 H   0  0  0  0  0  0  0  0  0  0  0  0
  135.9688  120.3501  125.7108 H   0  0  0  0  0  0  0  0  0  0  0  0
  133.9040  121.2830  126.7420 H   0  0  0  0  0  0  0  0  0  0  0  0
  133.4609  123.4212  126.8895 H   0  0  0  0  0  0  0  0  0  0  0  0
  135.2542  123.7815  126.9578 H   0  0  0  0  0  0  0  0  0  0  0  0
  133.6788  123.2052  124.4090 H   0  0  0  0  0  0  0  0  0  0  0  0
  134.8707  125.8892  125.0069 H   0  0  0  0  0  0  0  0  0  0  0  0
  133.4364  125.4335  124.0201 H   0  0  0  0  0  0  0  0  0  0  0  0
  131.7377  126.5812  127.8938 H   0  0  0  0  0  0  0  0  0  0  0  0
  129.4856  127.6633  127.6627 H   0  0  0  0  0  0  0  0  0  0  0  0
  131.7914  125.7084  123.6423 H   0  0  0  0  0  0  0  0  0  0  0  0
  128.0672  128.5197  123.2852 H   0  0  0  0  0  0  0  0  0  0  0  0
  127.2960  126.9009  123.6318 H   0  0  0  0  0  0  0  0  0  0  0  0
  135.1100  121.6507  122.5271 H   0  0  0  0  0  0  0  0  0  0  0  0
  135.0279  121.8419  120.0415 H   0  0  0  0  0  0  0  0  0  0  0  0
  1  2  1  0
  2  3  1  0
  3  4  2  0
  4  5  1  0
  5  6  1  0
  6  7  1  0
  7  8  1  0
  8  9  1  0
  9 10  1  0
 10 11  1  0
 11 12  1  0
 12 13  1  0
 13 14  1  0
 14 15  1  0
 15 16  2  0
 16 17  1  0
 17 18  2  0
 18 19  1  0
 18 20  1  0
 20 21  1  0
 21 22  1  0
  5 23  2  0
 23 24  1  0
 24  2  2  0
 11  6  1  0
 19 14  2  0
 22 17  1  0
  3 25  1  0
  4 26  1  0
  6 27  1  1
  7 28  1  0
  7 29  1  0
  8 30  1  0
  8 31  1  0
  9 32  1  0
 10 33  1  0
 10 34  1  0
 11 35  1  6
 12 36  1  0
 12 37  1  0
 15 38  1  0
 16 39  1  0
 19 40  1  0
 21 41  1  0
 21 42  1  0
 23 43  1  0
 24 44  1  0
M  END
>  <meeko>  (20) 
{"is_sidechain": [false], "free_energy": -8.701, "intermolecular_energy": -10.973, "internal_energy": -0.685}

$$$$
