seed-2302
     RDKit          3D

 44 47  0  0  0  0  0  0  0  0999 V2000
  133.2420  120.6570  126.7460 F   0  0  0  0  0  0  0  0  0  0  0  0
  133.9540  121.6220  126.1480 C   0  0  0  0  0  0  0  0  0  0  0  0
  134.9400  121.2760  125.2320 C   0  0  0  0  0  0  0  0  0  0  0  0
  135.6860  122.2780  124.6090 C   0  0  0  0  0  0  0  0  0  0  0  0
  135.4450  123.6310  124.8980 C   0  0  0  0  0  0  0  0  0  0  0  0
  136.2500  124.7500  124.2450 C   0  0  2  0  0  0  0  0  0  0  0  0
  137.2530  125.3950  125.2270 C   0  0  0  0  0  0  0  0  0  0  0  0
  136.8510  126.8110  125.6240 C   0  0  0  0  0  0  0  0  0  0  0  0
  136.7240  127.6990  124.4710 N   0  0  0  0  0  0  0  0  0  0  0  0
  136.1410  127.0730  123.2830 C   0  0  0  0  0  0  0  0  0  0  0  0
  135.3250  125.8070  123.5830 C   0  0  1  0  0  0  0  0  0  0  0  0
  134.6510  125.2730  122.3050 C   0  0  0  0  0  0  0  0  0  0  0  0
  135.5920  125.2490  121.2320 O   0  0  0  0  0  0  0  0  0  0  0  0
  135.2970  124.4540  120.1580 C   0  0  0  0  0  0  0  0  0  0  0  0
  134.5710  125.1050  119.1390 C   0  0  0  0  0  0  0  0  0  0  0  0
  134.1930  124.4280  117.9750 C   0  0  0  0  0  0  0  0  0  0  0  0
  134.5560  123.1050  117.8640 C   0  0  0  0  0  0  0  0  0  0  0  0
  135.2630  122.4660  118.8550 C   0  0  0  0  0  0  0  0  0  0  0  0
  135.6480  123.1100  120.0140 C   0  0  0  0  0  0  0  0  0  0  0  0
  135.5190  121.1650  118.5500 O   0  0  0  0  0  0  0  0  0  0  0  0
  134.8940  121.0600  117.2530 C   0  0  0  0  0  0  0  0  0  0  0  0
  134.2810  122.2890  116.8120 O   0  0  0  0  0  0  0  0  0  0  0  0
  134.4430  123.9550  125.8310 C   0  0  0  0  0  0  0  0  0  0  0  0
  133.7000  122.9510  126.4530 C   0  0  0  0  0  0  0  0  0  0  0  0
  135.1317  120.2182  124.9991 H   0  0  0  0  0  0  0  0  0  0  0  0
  136.4689  122.0056  123.8859 H   0  0  0  0  0  0  0  0  0  0  0  0
  136.8467  124.2912  123.4429 H   0  0  0  0  0  0  0  0  0  0  0  0
  137.3064  124.7757  126.1345 H   0  0  0  0  0  0  0  0  0  0  0  0
  138.2275  125.4533  124.7200 H   0  0  0  0  0  0  0  0  0  0  0  0
  135.8838  126.7701  126.1463 H   0  0  0  0  0  0  0  0  0  0  0  0
  137.6429  127.2147  126.2720 H   0  0  0  0  0  0  0  0  0  0  0  0
  136.1930  128.5290  124.7340 H   0  0  0  0  0  0  0  0  0  0  0  0
  135.4791  127.8042  122.7959 H   0  0  0  0  0  0  0  0  0  0  0  0
  136.9792  126.7673  122.6396 H   0  0  0  0  0  0  0  0  0  0  0  0
  134.5142  126.0458  124.2870 H   0  0  0  0  0  0  0  0  0  0  0  0
  134.2799  124.2537  122.4873 H   0  0  0  0  0  0  0  0  0  0  0  0
  133.8124  125.9320  122.0360 H   0  0  0  0  0  0  0  0  0  0  0  0
  134.2974  126.1633  119.2618 H   0  0  0  0  0  0  0  0  0  0  0  0
  133.6272  124.9336  117.1786 H   0  0  0  0  0  0  0  0  0  0  0  0
  136.2120  122.5824  120.7973 H   0  0  0  0  0  0  0  0  0  0  0  0
  135.6601  120.7694  116.5191 H   0  0  0  0  0  0  0  0  0  0  0  0
  134.0939  120.3098  117.3375 H   0  0  0  0  0  0  0  0  0  0  0  0
  134.2435  125.0095  126.0723 H   0  0  0  0  0  0  0  0  0  0  0  0
  132.9176  123.2119  127.1808 H   0  0  0  0  0  0  0  0  0  0  0  0
  1  2  1  0
  2  3  1  0
  3  4  2  0
  4  5  1  0
  5  6  1  0
  6  7  1  0
  7  8  1  0
  8  9  1  0
  9 10  1  0
 10 11  1  0
 11 12  1  0
 12 13  1  0
 13 14  1  0
 14 15  1  0
 15 16  2  0
 16 17  1  0
 17 18  2  0
 18 19  1  0
 18 20  1  0
 20 21  1  0
 21 22  1  0
  5 23  2  0
 23 24  1  0
 24  2  2  0
 11  6  1  0
 19 14  2  0
 22 17  1  0
  3 25  1  0
  4 26  1  0
  6 27  1  6
  7 28  1  0
  7 29  1  0
  8 30  1  0
  8 31  1  0
  9 32  1  0
 10 33  1  0
 10 34  1  0
 11 35  1  1
 12 36  1  0
 12 37  1  0
 15 38  1  0
 16 39  1  0
 19 40  1  0
 21 41  1  0
 21 42  1  0
 23 43  1  0
 24 44  1  0
M  END
>  <meeko>  (1) 
{"is_sidechain": [false], "free_energy": -10.437, "intermolecular_energy": -12.877, "internal_energy": -0.887}

$$$$
seed-2302
     RDKit          3D

 44 47  0  0  0  0  0  0  0  0999 V2000
  133.9240  120.7880  127.2200 F   0  0  0  0  0  0  0  0  0  0  0  0
  134.4860  121.7540  126.4800 C   0  0  0  0  0  0  0  0  0  0  0  0
  135.1480  121.4190  125.3070 C   0  0  0  0  0  0  0  0  0  0  0  0
  135.7370  122.4230  124.5350 C   0  0  0  0  0  0  0  0  0  0  0  0
  135.6600  123.7670  124.9340 C   0  0  0  0  0  0  0  0  0  0  0  0
  136.3030  124.8860  124.1210 C   0  0  2  0  0  0  0  0  0  0  0  0
  137.3100  125.7080  124.9560 C   0  0  0  0  0  0  0  0  0  0  0  0
  136.8030  127.1140  125.2600 C   0  0  0  0  0  0  0  0  0  0  0  0
  136.5070  127.8730  124.0480 N   0  0  0  0  0  0  0  0  0  0  0  0
  135.9000  127.0880  122.9710 C   0  0  0  0  0  0  0  0  0  0  0  0
  135.2350  125.7880  123.4480 C   0  0  1  0  0  0  0  0  0  0  0  0
  134.5220  125.0780  122.2810 C   0  0  0  0  0  0  0  0  0  0  0  0
  133.1210  125.3500  122.3290 O   0  0  0  0  0  0  0  0  0  0  0  0
  132.4390  124.9250  123.4370 C   0  0  0  0  0  0  0  0  0  0  0  0
  132.2710  123.5270  123.5110 C   0  0  0  0  0  0  0  0  0  0  0  0
  131.5950  122.9350  124.5830 C   0  0  0  0  0  0  0  0  0  0  0  0
  131.1010  123.7700  125.5600 C   0  0  0  0  0  0  0  0  0  0  0  0
  131.2610  125.1340  125.4920 C   0  0  0  0  0  0  0  0  0  0  0  0
  131.9240  125.7440  124.4440 C   0  0  0  0  0  0  0  0  0  0  0  0
  130.7000  125.7740  126.5530 O   0  0  0  0  0  0  0  0  0  0  0  0
  130.1700  124.6560  127.2970 C   0  0  0  0  0  0  0  0  0  0  0  0
  130.4210  123.3810  126.6710 O   0  0  0  0  0  0  0  0  0  0  0  0
  134.9870  124.0800  126.1280 C   0  0  0  0  0  0  0  0  0  0  0  0
  134.4000  123.0750  126.8980 C   0  0  0  0  0  0  0  0  0  0  0  0
  135.2085  120.3683  124.9870 H   0  0  0  0  0  0  0  0  0  0  0  0
  136.2654  122.1587  123.6071 H   0  0  0  0  0  0  0  0  0  0  0  0
  136.8798  124.4078  123.3156 H   0  0  0  0  0  0  0  0  0  0  0  0
  137.4910  125.1846  125.9064 H   0  0  0  0  0  0  0  0  0  0  0  0
  138.2338  125.8049  124.3667 H   0  0  0  0  0  0  0  0  0  0  0  0
  135.8851  127.0363  125.8612 H   0  0  0  0  0  0  0  0  0  0  0  0
  137.5970  127.6467  125.8039 H   0  0  0  0  0  0  0  0  0  0  0  0
  135.9180  128.6740  124.2800 H   0  0  0  0  0  0  0  0  0  0  0  0
  135.1359  127.7077  122.4788 H   0  0  0  0  0  0  0  0  0  0  0  0
  136.7130  126.7994  122.2885 H   0  0  0  0  0  0  0  0  0  0  0  0
  134.4602  126.0185  124.1940 H   0  0  0  0  0  0  0  0  0  0  0  0
  134.9317  125.4425  121.3275 H   0  0  0  0  0  0  0  0  0  0  0  0
  134.6831  123.9931  122.3648 H   0  0  0  0  0  0  0  0  0  0  0  0
  132.6787  122.8907  122.7117 H   0  0  0  0  0  0  0  0  0  0  0  0
  131.4632  121.8446  124.6432 H   0  0  0  0  0  0  0  0  0  0  0  0
  132.0420  126.8369  124.4045 H   0  0  0  0  0  0  0  0  0  0  0  0
  130.6317  124.6512  128.2954 H   0  0  0  0  0  0  0  0  0  0  0  0
  129.0787  124.7854  127.3443 H   0  0  0  0  0  0  0  0  0  0  0  0
  134.9225  125.1272  126.4585 H   0  0  0  0  0  0  0  0  0  0  0  0
  133.8728  123.3278  127.8297 H   0  0  0  0  0  0  0  0  0  0  0  0
  1  2  1  0
  2  3  1  0
  3  4  2  0
  4  5  1  0
  5  6  1  0
  6  7  1  0
  7  8  1  0
  8  9  1  0
  9 10  1  0
 10 11  1  0
 11 12  1  0
 12 13  1  0
 13 14  1  0
 14 15  1  0
 15 16  2  0
 16 17  1  0
 17 18  2  0
 18 19  1  0
 18 20  1  0
 20 21  1  0
 21 22  1  0
  5 23  2  0
 23 24  1  0
 24  2  2  0
 11  6  1  0
 19 14  2  0
 22 17  1  0
  3 25  1  0
  4 26  1  0
  6 27  1  6
  7 28  1  0
  7 29  1  0
  8 30  1  0
  8 31  1  0
  9 32  1  0
 10 33  1  0
 10 34  1  0
 11 35  1  1
 12 36  1  0
 12 37  1  0
 15 38  1  0
 16 39  1  0
 19 40  1  0
 21 41  1  0
 21 42  1  0
 23 43  1  0
 24 44  1  0
M  END
>  <meeko>  (2) 
{"is_sidechain": [false], "free_energy": -10.008, "intermolecular_energy": -11.216, "internal_energy": -2.02}

$$$$
seed-2302
     RDKit          3D

 44 47  0  0  0  0  0  0  0  0999 V2000
  131.3830  126.7750  123.5170 F   0  0  0  0  0  0  0  0  0  0  0  0
  132.0890  125.7060  123.9120 C   0  0  0  0  0  0  0  0  0  0  0  0
  131.9490  124.5050  123.2280 C   0  0  0  0  0  0  0  0  0  0  0  0
  132.6800  123.3880  123.6390 C   0  0  0  0  0  0  0  0  0  0  0  0
  133.5570  123.4720  124.7330 C   0  0  0  0  0  0  0  0  0  0  0  0
  134.3610  122.2690  125.2150 C   0  0  2  0  0  0  0  0  0  0  0  0
  133.9320  121.8100  126.6250 C   0  0  0  0  0  0  0  0  0  0  0  0
  134.9910  122.1080  127.6820 C   0  0  0  0  0  0  0  0  0  0  0  0
  136.2730  121.4770  127.3790 N   0  0  0  0  0  0  0  0  0  0  0  0
  136.6290  121.4730  125.9590 C   0  0  0  0  0  0  0  0  0  0  0  0
  135.8880  122.5320  125.1290 C   0  0  1  0  0  0  0  0  0  0  0  0
  136.3980  122.5440  123.6750 C   0  0  0  0  0  0  0  0  0  0  0  0
  136.4320  123.8830  123.1830 O   0  0  0  0  0  0  0  0  0  0  0  0
  135.8860  124.1110  121.9490 C   0  0  0  0  0  0  0  0  0  0  0  0
  135.2720  125.3720  121.8110 C   0  0  0  0  0  0  0  0  0  0  0  0
  134.6680  125.7560  120.6100 C   0  0  0  0  0  0  0  0  0  0  0  0
  134.6970  124.8550  119.5690 C   0  0  0  0  0  0  0  0  0  0  0  0
  135.2940  123.6230  119.6980 C   0  0  0  0  0  0  0  0  0  0  0  0
  135.8970  123.2190  120.8740 C   0  0  0  0  0  0  0  0  0  0  0  0
  135.2120  122.8870  118.5570 O   0  0  0  0  0  0  0  0  0  0  0  0
  134.4960  123.7980  117.6960 C   0  0  0  0  0  0  0  0  0  0  0  0
  134.1670  125.0490  118.3330 O   0  0  0  0  0  0  0  0  0  0  0  0
  133.6790  124.6990  125.4090 C   0  0  0  0  0  0  0  0  0  0  0  0
  132.9460  125.8140  124.9980 C   0  0  0  0  0  0  0  0  0  0  0  0
  131.2667  124.4341  122.3681 H   0  0  0  0  0  0  0  0  0  0  0  0
  132.5680  122.4348  123.1016 H   0  0  0  0  0  0  0  0  0  0  0  0
  134.1356  121.4365  124.5323 H   0  0  0  0  0  0  0  0  0  0  0  0
  133.0032  122.3319  126.8988 H   0  0  0  0  0  0  0  0  0  0  0  0
  133.7881  120.7199  126.5931 H   0  0  0  0  0  0  0  0  0  0  0  0
  135.1376  123.1967  127.7381 H   0  0  0  0  0  0  0  0  0  0  0  0
  134.6340  121.6996  128.6390 H   0  0  0  0  0  0  0  0  0  0  0  0
  137.0100  121.9160  127.9310 H   0  0  0  0  0  0  0  0  0  0  0  0
  137.7097  121.6588  125.8723 H   0  0  0  0  0  0  0  0  0  0  0  0
  136.3360  120.4911  125.5590 H   0  0  0  0  0  0  0  0  0  0  0  0
  136.0887  123.5332  125.5382 H   0  0  0  0  0  0  0  0  0  0  0  0
  137.4111  122.1169  123.6404 H   0  0  0  0  0  0  0  0  0  0  0  0
  135.7203  121.9453  123.0487 H   0  0  0  0  0  0  0  0  0  0  0  0
  135.2679  126.0668  122.6638 H   0  0  0  0  0  0  0  0  0  0  0  0
  134.1882  126.7398  120.5008 H   0  0  0  0  0  0  0  0  0  0  0  0
  136.3693  122.2293  120.9606 H   0  0  0  0  0  0  0  0  0  0  0  0
  135.1204  124.0088  116.8153 H   0  0  0  0  0  0  0  0  0  0  0  0
  133.5470  123.3116  117.4262 H   0  0  0  0  0  0  0  0  0  0  0  0
  134.3586  124.7812  126.2700 H   0  0  0  0  0  0  0  0  0  0  0  0
  133.0471  126.7709  125.5311 H   0  0  0  0  0  0  0  0  0  0  0  0
  1  2  1  0
  2  3  1  0
  3  4  2  0
  4  5  1  0
  5  6  1  0
  6  7  1  0
  7  8  1  0
  8  9  1  0
  9 10  1  0
 10 11  1  0
 11 12  1  0
 12 13  1  0
 13 14  1  0
 14 15  1  0
 15 16  2  0
 16 17  1  0
 17 18  2  0
 18 19  1  0
 18 20  1  0
 20 21  1  0
 21 22  1  0
  5 23  2  0
 23 24  1  0
 24  2  2  0
 11  6  1  0
 19 14  2  0
 22 17  1  0
  3 25  1  0
  4 26  1  0
  6 27  1  6
  7 28  1  0
  7 29  1  0
  8 30  1  0
  8 31  1  0
  9 32  1  0
 10 33  1  0
 10 34  1  0
 11 35  1  1
 12 36  1  0
 12 37  1  0
 15 38  1  0
 16 39  1  0
 19 40  1  0
 21 41  1  0
 21 42  1  0
 23 43  1  0
 24 44  1  0
M  END
>  <meeko>  (3) 
{"is_sidechain": [false], "free_energy": -9.666, "intermolecular_energy": -11.154, "internal_energy": -1.66}

$$$$
seed-2302
     RDKit          3D

 44 47  0  0  0  0  0  0  0  0999 V2000
  136.8010  120.0150  126.3830 F   0  0  0  0  0  0  0  0  0  0  0  0
  135.9400  121.0400  126.3240 C   0  0  0  0  0  0  0  0  0  0  0  0
  135.1310  121.1900  125.2050 C   0  0  0  0  0  0  0  0  0  0  0  0
  134.2350  122.2590  125.1390 C   0  0  0  0  0  0  0  0  0  0  0  0
  134.1430  123.1790  126.1960 C   0  0  0  0  0  0  0  0  0  0  0  0
  133.1840  124.3640  126.1510 C   0  0  2  0  0  0  0  0  0  0  0  0
  131.7880  124.0060  126.7060 C   0  0  0  0  0  0  0  0  0  0  0  0
  130.7240  123.9490  125.6140 C   0  0  0  0  0  0  0  0  0  0  0  0
  130.6030  125.2100  124.8880 N   0  0  0  0  0  0  0  0  0  0  0  0
  131.8740  125.8960  124.6440 C   0  0  0  0  0  0  0  0  0  0  0  0
  133.1030  124.9790  124.7270 C   0  0  1  0  0  0  0  0  0  0  0  0
  134.3850  125.7430  124.3470 C   0  0  0  0  0  0  0  0  0  0  0  0
  134.2500  126.2980  123.0390 O   0  0  0  0  0  0  0  0  0  0  0  0
  134.5700  125.4910  121.9810 C   0  0  0  0  0  0  0  0  0  0  0  0
  135.3540  124.3710  122.3250 C   0  0  0  0  0  0  0  0  0  0  0  0
  135.7640  123.4500  121.3560 C   0  0  0  0  0  0  0  0  0  0  0  0
  135.3720  123.6790  120.0560 C   0  0  0  0  0  0  0  0  0  0  0  0
  134.6080  124.7700  119.7150 C   0  0  0  0  0  0  0  0  0  0  0  0
  134.1910  125.6960  120.6530 C   0  0  0  0  0  0  0  0  0  0  0  0
  134.3320  124.8130  118.3840 O   0  0  0  0  0  0  0  0  0  0  0  0
  135.0090  123.6220  117.9270 C   0  0  0  0  0  0  0  0  0  0  0  0
  135.6710  122.8990  118.9840 O   0  0  0  0  0  0  0  0  0  0  0  0
  134.9740  123.0070  127.3170 C   0  0  0  0  0  0  0  0  0  0  0  0
  135.8700  121.9390  127.3800 C   0  0  0  0  0  0  0  0  0  0  0  0
  135.1957  120.4707  124.3753 H   0  0  0  0  0  0  0  0  0  0  0  0
  133.5961  122.3814  124.2520 H   0  0  0  0  0  0  0  0  0  0  0  0
  133.5966  125.1366  126.8165 H   0  0  0  0  0  0  0  0  0  0  0  0
  131.8443  123.0227  127.1958 H   0  0  0  0  0  0  0  0  0  0  0  0
  131.4975  124.7944  127.4159 H   0  0  0  0  0  0  0  0  0  0  0  0
  130.9918  123.1553  124.9011 H   0  0  0  0  0  0  0  0  0  0  0  0
  129.7572  123.7468  126.0982 H   0  0  0  0  0  0  0  0  0  0  0  0
  130.1080  125.0540  124.0090 H   0  0  0  0  0  0  0  0  0  0  0  0
  131.8404  126.3396  123.6380 H   0  0  0  0  0  0  0  0  0  0  0  0
  131.9857  126.6515  125.4357 H   0  0  0  0  0  0  0  0  0  0  0  0
  133.0037  124.1580  124.0017 H   0  0  0  0  0  0  0  0  0  0  0  0
  134.5550  126.5533  125.0713 H   0  0  0  0  0  0  0  0  0  0  0  0
  135.2378  125.0483  124.3594 H   0  0  0  0  0  0  0  0  0  0  0  0
  135.6483  124.2190  123.3739 H   0  0  0  0  0  0  0  0  0  0  0  0
  136.3764  122.5758  121.6221 H   0  0  0  0  0  0  0  0  0  0  0  0
  133.5815  126.5645  120.3630 H   0  0  0  0  0  0  0  0  0  0  0  0
  134.2676  122.9566  117.4606 H   0  0  0  0  0  0  0  0  0  0  0  0
  135.7854  123.9420  117.2165 H   0  0  0  0  0  0  0  0  0  0  0  0
  134.9174  123.7208  128.1520 H   0  0  0  0  0  0  0  0  0  0  0  0
  136.5166  121.8101  128.2605 H   0  0  0  0  0  0  0  0  0  0  0  0
  1  2  1  0
  2  3  1  0
  3  4  2  0
  4  5  1  0
  5  6  1  0
  6  7  1  0
  7  8  1  0
  8  9  1  0
  9 10  1  0
 10 11  1  0
 11 12  1  0
 12 13  1  0
 13 14  1  0
 14 15  1  0
 15 16  2  0
 16 17  1  0
 17 18  2  0
 18 19  1  0
 18 20  1  0
 20 21  1  0
 21 22  1  0
  5 23  2  0
 23 24  1  0
 24  2  2  0
 11  6  1  0
 19 14  2  0
 22 17  1  0
  3 25  1  0
  4 26  1  0
  6 27  1  1
  7 28  1  0
  7 29  1  0
  8 30  1  0
  8 31  1  0
  9 32  1  0
 10 33  1  0
 10 34  1  0
 11 35  1  6
 12 36  1  0
 12 37  1  0
 15 38  1  0
 16 39  1  0
 19 40  1  0
 21 41  1  0
 21 42  1  0
 23 43  1  0
 24 44  1  0
M  END
>  <meeko>  (4) 
{"is_sidechain": [false], "free_energy": -9.6, "intermolecular_energy": -11.725, "internal_energy": -1.007}

$$$$
seed-2302
     RDKit          3D

 44 47  0  0  0  0  0  0  0  0999 V2000
  136.4360  121.5100  127.2680 F   0  0  0  0  0  0  0  0  0  0  0  0
  136.0390  121.8970  126.0480 C   0  0  0  0  0  0  0  0  0  0  0  0
  135.1950  121.0760  125.3110 C   0  0  0  0  0  0  0  0  0  0  0  0
  134.7820  121.4750  124.0380 C   0  0  0  0  0  0  0  0  0  0  0  0
  135.2110  122.6990  123.5000 C   0  0  0  0  0  0  0  0  0  0  0  0
  134.7890  123.1580  122.1080 C   0  0  2  0  0  0  0  0  0  0  0  0
  135.9280  123.0070  121.0750 C   0  0  0  0  0  0  0  0  0  0  0  0
  136.4910  124.3530  120.6290 C   0  0  0  0  0  0  0  0  0  0  0  0
  135.4710  125.2170  120.0430 N   0  0  0  0  0  0  0  0  0  0  0  0
  134.1640  125.1460  120.6980 C   0  0  0  0  0  0  0  0  0  0  0  0
  134.2150  124.6000  122.1330 C   0  0  1  0  0  0  0  0  0  0  0  0
  132.8260  124.6640  122.7940 C   0  0  0  0  0  0  0  0  0  0  0  0
  132.9370  125.2160  124.1060 O   0  0  0  0  0  0  0  0  0  0  0  0
  132.0270  124.7980  125.0400 C   0  0  0  0  0  0  0  0  0  0  0  0
  132.3260  123.5480  125.6180 C   0  0  0  0  0  0  0  0  0  0  0  0
  131.4930  122.9830  126.5900 C   0  0  0  0  0  0  0  0  0  0  0  0
  130.3740  123.6950  126.9580 C   0  0  0  0  0  0  0  0  0  0  0  0
  130.0780  124.9140  126.3970 C   0  0  0  0  0  0  0  0  0  0  0  0
  130.8830  125.4940  125.4350 C   0  0  0  0  0  0  0  0  0  0  0  0
  128.9320  125.4490  126.8970 O   0  0  0  0  0  0  0  0  0  0  0  0
  128.5410  124.4270  127.8380 C   0  0  0  0  0  0  0  0  0  0  0  0
  129.4530  123.3100  127.8810 O   0  0  0  0  0  0  0  0  0  0  0  0
  136.0680  123.5100  124.2650 C   0  0  0  0  0  0  0  0  0  0  0  0
  136.4800  123.1090  125.5360 C   0  0  0  0  0  0  0  0  0  0  0  0
  134.8539  120.1169  125.7278 H   0  0  0  0  0  0  0  0  0  0  0  0
  134.1153  120.8252  123.4521 H   0  0  0  0  0  0  0  0  0  0  0  0
  133.9783  122.4905  121.7806 H   0  0  0  0  0  0  0  0  0  0  0  0
  136.7390  122.4172  121.5271 H   0  0  0  0  0  0  0  0  0  0  0  0
  135.5121  122.5069  120.1879 H   0  0  0  0  0  0  0  0  0  0  0  0
  136.9248  124.8613  121.5027 H   0  0  0  0  0  0  0  0  0  0  0  0
  137.2501  124.1594  119.8568 H   0  0  0  0  0  0  0  0  0  0  0  0
  135.8080  126.1800  120.0220 H   0  0  0  0  0  0  0  0  0  0  0  0
  133.7363  126.1590  120.7280 H   0  0  0  0  0  0  0  0  0  0  0  0
  133.5510  124.4456  120.1118 H   0  0  0  0  0  0  0  0  0  0  0  0
  134.8804  125.2259  122.7458 H   0  0  0  0  0  0  0  0  0  0  0  0
  132.1621  125.2970  122.1870 H   0  0  0  0  0  0  0  0  0  0  0  0
  132.4105  123.6478  122.8627 H   0  0  0  0  0  0  0  0  0  0  0  0
  133.2295  123.0073  125.2997 H   0  0  0  0  0  0  0  0  0  0  0  0
  131.7236  122.0073  127.0426 H   0  0  0  0  0  0  0  0  0  0  0  0
  130.6311  126.4705  124.9956 H   0  0  0  0  0  0  0  0  0  0  0  0
  128.4922  124.8764  128.8408 H   0  0  0  0  0  0  0  0  0  0  0  0
  127.5659  124.0382  127.5093 H   0  0  0  0  0  0  0  0  0  0  0  0
  136.4170  124.4701  123.8571 H   0  0  0  0  0  0  0  0  0  0  0  0
  137.1500  123.7493  126.1285 H   0  0  0  0  0  0  0  0  0  0  0  0
  1  2  1  0
  2  3  1  0
  3  4  2  0
  4  5  1  0
  5  6  1  0
  6  7  1  0
  7  8  1  0
  8  9  1  0
  9 10  1  0
 10 11  1  0
 11 12  1  0
 12 13  1  0
 13 14  1  0
 14 15  1  0
 15 16  2  0
 16 17  1  0
 17 18  2  0
 18 19  1  0
 18 20  1  0
 20 21  1  0
 21 22  1  0
  5 23  2  0
 23 24  1  0
 24  2  2  0
 11  6  1  0
 19 14  2  0
 22 17  1  0
  3 25  1  0
  4 26  1  0
  6 27  1  6
  7 28  1  0
  7 29  1  0
  8 30  1  0
  8 31  1  0
  9 32  1  0
 10 33  1  0
 10 34  1  0
 11 35  1  1
 12 36  1  0
 12 37  1  0
 15 38  1  0
 16 39  1  0
 19 40  1  0
 21 41  1  0
 21 42  1  0
 23 43  1  0
 24 44  1  0
M  END
>  <meeko>  (5) 
{"is_sidechain": [false], "free_energy": -9.54, "intermolecular_energy": -11.309, "internal_energy": -1.349}

$$$$
seed-2302
     RDKit          3D

 44 47  0  0  0  0  0  0  0  0999 V2000
  135.7110  121.8240  128.0940 F   0  0  0  0  0  0  0  0  0  0  0  0
  135.4200  122.1650  126.8310 C   0  0  0  0  0  0  0  0  0  0  0  0
  135.3330  121.1750  125.8600 C   0  0  0  0  0  0  0  0  0  0  0  0
  135.0320  121.5270  124.5420 C   0  0  0  0  0  0  0  0  0  0  0  0
  134.8140  122.8690  124.1930 C   0  0  0  0  0  0  0  0  0  0  0  0
  134.4970  123.2890  122.7620 C   0  0  2  0  0  0  0  0  0  0  0  0
  135.7650  123.3700  121.8840 C   0  0  0  0  0  0  0  0  0  0  0  0
  136.1320  124.8060  121.5230 C   0  0  0  0  0  0  0  0  0  0  0  0
  135.0570  125.4940  120.8150 N   0  0  0  0  0  0  0  0  0  0  0  0
  133.7110  125.1760  121.2960 C   0  0  0  0  0  0  0  0  0  0  0  0
  133.6770  124.6060  122.7210 C   0  0  1  0  0  0  0  0  0  0  0  0
  132.2260  124.4060  123.1980 C   0  0  0  0  0  0  0  0  0  0  0  0
  131.4620  125.5840  122.9380 O   0  0  0  0  0  0  0  0  0  0  0  0
  131.0640  126.3220  124.0200 C   0  0  0  0  0  0  0  0  0  0  0  0
  129.8670  127.0400  123.8220 C   0  0  0  0  0  0  0  0  0  0  0  0
  129.3270  127.8410  124.8330 C   0  0  0  0  0  0  0  0  0  0  0  0
  130.0100  127.9010  126.0270 C   0  0  0  0  0  0  0  0  0  0  0  0
  131.1780  127.2040  126.2250 C   0  0  0  0  0  0  0  0  0  0  0  0
  131.7330  126.4060  125.2430 C   0  0  0  0  0  0  0  0  0  0  0  0
  131.6920  127.4000  127.4690 O   0  0  0  0  0  0  0  0  0  0  0  0
  130.7130  128.3000  128.0310 C   0  0  0  0  0  0  0  0  0  0  0  0
  129.6420  128.6210  127.1190 O   0  0  0  0  0  0  0  0  0  0  0  0
  134.9110  123.8520  125.1940 C   0  0  0  0  0  0  0  0  0  0  0  0
  135.2130  123.4990  126.5110 C   0  0  0  0  0  0  0  0  0  0  0  0
  135.5000  120.1211  126.1273 H   0  0  0  0  0  0  0  0  0  0  0  0
  134.9652  120.7455  123.7708 H   0  0  0  0  0  0  0  0  0  0  0  0
  133.8654  122.4997  122.3284 H   0  0  0  0  0  0  0  0  0  0  0  0
  136.6043  122.9184  122.4332 H   0  0  0  0  0  0  0  0  0  0  0  0
  135.5593  122.8310  120.9474 H   0  0  0  0  0  0  0  0  0  0  0  0
  136.3546  125.3570  122.4486 H   0  0  0  0  0  0  0  0  0  0  0  0
  137.0050  124.7711  120.8547 H   0  0  0  0  0  0  0  0  0  0  0  0
  135.2170  126.5020  120.8440 H   0  0  0  0  0  0  0  0  0  0  0  0
  133.1101  126.0972  121.2772 H   0  0  0  0  0  0  0  0  0  0  0  0
  133.3108  124.3964  120.6311 H   0  0  0  0  0  0  0  0  0  0  0  0
  134.1380  125.3210  123.4184 H   0  0  0  0  0  0  0  0  0  0  0  0
  131.7796  123.5559  122.6613 H   0  0  0  0  0  0  0  0  0  0  0  0
  132.2248  124.2051  124.2795 H   0  0  0  0  0  0  0  0  0  0  0  0
  129.3484  126.9688  122.8545 H   0  0  0  0  0  0  0  0  0  0  0  0
  128.3928  128.4014  124.6803 H   0  0  0  0  0  0  0  0  0  0  0  0
  132.6693  125.8560  125.4184 H   0  0  0  0  0  0  0  0  0  0  0  0
  130.2800  127.8298  128.9262 H   0  0  0  0  0  0  0  0  0  0  0  0
  131.2327  129.2404  128.2666 H   0  0  0  0  0  0  0  0  0  0  0  0
  134.7474  124.9090  124.9372 H   0  0  0  0  0  0  0  0  0  0  0  0
  135.2862  124.2731  127.2891 H   0  0  0  0  0  0  0  0  0  0  0  0
  1  2  1  0
  2  3  1  0
  3  4  2  0
  4  5  1  0
  5  6  1  0
  6  7  1  0
  7  8  1  0
  8  9  1  0
  9 10  1  0
 10 11  1  0
 11 12  1  0
 12 13  1  0
 13 14  1  0
 14 15  1  0
 15 16  2  0
 16 17  1  0
 17 18  2  0
 18 19  1  0
 18 20  1  0
 20 21  1  0
 21 22  1  0
  5 23  2  0
 23 24  1  0
 24  2  2  0
 11  6  1  0
 19 14  2  0
 22 17  1  0
  3 25  1  0
  4 26  1  0
  6 27  1  6
  7 28  1  0
  7 29  1  0
  8 30  1  0
  8 31  1  0
  9 32  1  0
 10 33  1  0
 10 34  1  0
 11 35  1  1
 12 36  1  0
 12 37  1  0
 15 38  1  0
 16 39  1  0
 19 40  1  0
 21 41  1  0
 21 42  1  0
 23 43  1  0
 24 44  1  0
M  END
>  <meeko>  (6) 
{"is_sidechain": [false], "free_energy": -9.512, "intermolecular_energy": -11.814, "internal_energy": -0.809}

$$$$
seed-2302
     RDKit          3D

 44 47  0  0  0  0  0  0  0  0999 V2000
  134.4060  121.0700  126.5770 F   0  0  0  0  0  0  0  0  0  0  0  0
  133.6270  122.1600  126.5320 C   0  0  0  0  0  0  0  0  0  0  0  0
  134.2130  123.4190  126.5510 C   0  0  0  0  0  0  0  0  0  0  0  0
  133.4040  124.5570  126.5070 C   0  0  0  0  0  0  0  0  0  0  0  0
  132.0060  124.4370  126.4410 C   0  0  0  0  0  0  0  0  0  0  0  0
  131.0940  125.6590  126.4050 C   0  0  2  0  0  0  0  0  0  0  0  0
  130.0440  125.6350  127.5380 C   0  0  0  0  0  0  0  0  0  0  0  0
  128.6320  125.3850  127.0170 C   0  0  0  0  0  0  0  0  0  0  0  0
  128.2120  126.3880  126.0430 N   0  0  0  0  0  0  0  0  0  0  0  0
  129.2680  126.8270  125.1280 C   0  0  0  0  0  0  0  0  0  0  0  0
  130.4390  125.8410  125.0100 C   0  0  1  0  0  0  0  0  0  0  0  0
  131.4490  126.3140  123.9480 C   0  0  0  0  0  0  0  0  0  0  0  0
  131.4350  125.4240  122.8310 O   0  0  0  0  0  0  0  0  0  0  0  0
  132.6370  124.9140  122.4220 C   0  0  0  0  0  0  0  0  0  0  0  0
  133.0600  123.7790  123.1430 C   0  0  0  0  0  0  0  0  0  0  0  0
  134.2670  123.1410  122.8440 C   0  0  0  0  0  0  0  0  0  0  0  0
  135.0260  123.6630  121.8210 C   0  0  0  0  0  0  0  0  0  0  0  0
  134.6180  124.7710  121.1150 C   0  0  0  0  0  0  0  0  0  0  0  0
  133.4300  125.4200  121.3900 C   0  0  0  0  0  0  0  0  0  0  0  0
  135.5090  125.1250  120.1500 O   0  0  0  0  0  0  0  0  0  0  0  0
  136.5220  124.1130  120.3290 C   0  0  0  0  0  0  0  0  0  0  0  0
  136.2210  123.1820  121.3880 O   0  0  0  0  0  0  0  0  0  0  0  0
  131.4380  123.1510  126.4260 C   0  0  0  0  0  0  0  0  0  0  0  0
  132.2480  122.0150  126.4710 C   0  0  0  0  0  0  0  0  0  0  0  0
  135.3073  123.5194  126.6004 H   0  0  0  0  0  0  0  0  0  0  0  0
  133.8656  125.5553  126.5242 H   0  0  0  0  0  0  0  0  0  0  0  0
  131.7283  126.5397  126.5837 H   0  0  0  0  0  0  0  0  0  0  0  0
  130.3062  124.8348  128.2458 H   0  0  0  0  0  0  0  0  0  0  0  0
  130.0524  126.6217  128.0241 H   0  0  0  0  0  0  0  0  0  0  0  0
  128.6020  124.3946  126.5393 H   0  0  0  0  0  0  0  0  0  0  0  0
  127.9440  125.4407  127.8734 H   0  0  0  0  0  0  0  0  0  0  0  0
  127.4080  126.0420  125.5190 H   0  0  0  0  0  0  0  0  0  0  0  0
  128.8269  126.9619  124.1294 H   0  0  0  0  0  0  0  0  0  0  0  0
  129.6779  127.7616  125.5386 H   0  0  0  0  0  0  0  0  0  0  0  0
  130.0680  124.8618  124.6732 H   0  0  0  0  0  0  0  0  0  0  0  0
  131.1772  127.3254  123.6115 H   0  0  0  0  0  0  0  0  0  0  0  0
  132.4571  126.3259  124.3880 H   0  0  0  0  0  0  0  0  0  0  0  0
  132.4291  123.3886  123.9551 H   0  0  0  0  0  0  0  0  0  0  0  0
  134.5982  122.2548  123.4052 H   0  0  0  0  0  0  0  0  0  0  0  0
  133.1193  126.3052  120.8156 H   0  0  0  0  0  0  0  0  0  0  0  0
  136.6231  123.5509  119.3889 H   0  0  0  0  0  0  0  0  0  0  0  0
  137.4522  124.6304  120.6064 H   0  0  0  0  0  0  0  0  0  0  0  0
  130.3448  123.0389  126.3783 H   0  0  0  0  0  0  0  0  0  0  0  0
  131.7966  121.0120  126.4582 H   0  0  0  0  0  0  0  0  0  0  0  0
  1  2  1  0
  2  3  1  0
  3  4  2  0
  4  5  1  0
  5  6  1  0
  6  7  1  0
  7  8  1  0
  8  9  1  0
  9 10  1  0
 10 11  1  0
 11 12  1  0
 12 13  1  0
 13 14  1  0
 14 15  1  0
 15 16  2  0
 16 17  1  0
 17 18  2  0
 18 19  1  0
 18 20  1  0
 20 21  1  0
 21 22  1  0
  5 23  2  0
 23 24  1  0
 24  2  2  0
 11  6  1  0
 19 14  2  0
 22 17  1  0
  3 25  1  0
  4 26  1  0
  6 27  1  1
  7 28  1  0
  7 29  1  0
  8 30  1  0
  8 31  1  0
  9 32  1  0
 10 33  1  0
 10 34  1  0
 11 35  1  6
 12 36  1  0
 12 37  1  0
 15 38  1  0
 16 39  1  0
 19 40  1  0
 21 41  1  0
 21 42  1  0
 23 43  1  0
 24 44  1  0
M  END
>  <meeko>  (7) 
{"is_sidechain": [false], "free_energy": -9.455, "intermolecular_energy": -11.134, "internal_energy": -1.419}

$$$$
seed-2302
     RDKit          3D

 44 47  0  0  0  0  0  0  0  0999 V2000
  129.8680  125.6410  127.4390 F   0  0  0  0  0  0  0  0  0  0  0  0
  130.8140  124.9340  126.8060 C   0  0  0  0  0  0  0  0  0  0  0  0
  130.5420  123.6300  126.4120 C   0  0  0  0  0  0  0  0  0  0  0  0
  131.5270  122.8890  125.7550 C   0  0  0  0  0  0  0  0  0  0  0  0
  132.7850  123.4520  125.4880 C   0  0  0  0  0  0  0  0  0  0  0  0
  133.8870  122.6660  124.7840 C   0  0  2  0  0  0  0  0  0  0  0  0
  134.5850  121.6660  125.7320 C   0  0  0  0  0  0  0  0  0  0  0  0
  136.0110  122.0860  126.0720 C   0  0  0  0  0  0  0  0  0  0  0  0
  136.8480  122.2300  124.8840 N   0  0  0  0  0  0  0  0  0  0  0  0
  136.1650  122.8120  123.7260 C   0  0  0  0  0  0  0  0  0  0  0  0
  134.9020  123.6080  124.0840 C   0  0  1  0  0  0  0  0  0  0  0  0
  134.3070  124.2820  122.8330 C   0  0  0  0  0  0  0  0  0  0  0  0
  135.3420  124.5540  121.8880 O   0  0  0  0  0  0  0  0  0  0  0  0
  135.1520  124.1090  120.6080 C   0  0  0  0  0  0  0  0  0  0  0  0
  134.6290  125.0800  119.7300 C   0  0  0  0  0  0  0  0  0  0  0  0
  134.3790  124.7820  118.3870 C   0  0  0  0  0  0  0  0  0  0  0  0
  134.6630  123.5050  117.9560 C   0  0  0  0  0  0  0  0  0  0  0  0
  135.1720  122.5540  118.8080 C   0  0  0  0  0  0  0  0  0  0  0  0
  135.4280  122.8220  120.1400 C   0  0  0  0  0  0  0  0  0  0  0  0
  135.3810  121.3620  118.1870 O   0  0  0  0  0  0  0  0  0  0  0  0
  134.9450  121.6730  116.8470 C   0  0  0  0  0  0  0  0  0  0  0  0
  134.4880  123.0320  116.6940 O   0  0  0  0  0  0  0  0  0  0  0  0
  133.0360  124.7730  125.9000 C   0  0  0  0  0  0  0  0  0  0  0  0
  132.0510  125.5120  126.5570 C   0  0  0  0  0  0  0  0  0  0  0  0
  129.5574  123.1839  126.6161 H   0  0  0  0  0  0  0  0  0  0  0  0
  131.3152  121.8553  125.4441 H   0  0  0  0  0  0  0  0  0  0  0  0
  133.4035  122.0677  123.9977 H   0  0  0  0  0  0  0  0  0  0  0  0
  134.0047  121.5989  126.6641 H   0  0  0  0  0  0  0  0  0  0  0  0
  134.6349  120.6950  125.2176 H   0  0  0  0  0  0  0  0  0  0  0  0
  135.9786  123.0504  126.6002 H   0  0  0  0  0  0  0  0  0  0  0  0
  136.4521  121.2972  126.6990 H   0  0  0  0  0  0  0  0  0  0  0  0
  137.6810  122.7720  125.1150 H   0  0  0  0  0  0  0  0  0  0  0  0
  136.8662  123.4871  123.2135 H   0  0  0  0  0  0  0  0  0  0  0  0
  135.8445  121.9738  123.0898 H   0  0  0  0  0  0  0  0  0  0  0  0
  135.1582  124.4177  124.7831 H   0  0  0  0  0  0  0  0  0  0  0  0
  133.5635  123.6120  122.3766 H   0  0  0  0  0  0  0  0  0  0  0  0
  133.8264  125.2273  123.1253 H   0  0  0  0  0  0  0  0  0  0  0  0
  134.4137  126.0902  120.1082 H   0  0  0  0  0  0  0  0  0  0  0  0
  133.9710  125.5387  117.7007 H   0  0  0  0  0  0  0  0  0  0  0  0
  135.8349  122.0486  120.8081 H   0  0  0  0  0  0  0  0  0  0  0  0
  135.7878  121.5091  116.1593 H   0  0  0  0  0  0  0  0  0  0  0  0
  134.0914  121.0164  116.6228 H   0  0  0  0  0  0  0  0  0  0  0  0
  134.0178  125.2281  125.7026 H   0  0  0  0  0  0  0  0  0  0  0  0
  132.2537  126.5453  126.8752 H   0  0  0  0  0  0  0  0  0  0  0  0
  1  2  1  0
  2  3  1  0
  3  4  2  0
  4  5  1  0
  5  6  1  0
  6  7  1  0
  7  8  1  0
  8  9  1  0
  9 10  1  0
 10 11  1  0
 11 12  1  0
 12 13  1  0
 13 14  1  0
 14 15  1  0
 15 16  2  0
 16 17  1  0
 17 18  2  0
 18 19  1  0
 18 20  1  0
 20 21  1  0
 21 22  1  0
  5 23  2  0
 23 24  1  0
 24  2  2  0
 11  6  1  0
 19 14  2  0
 22 17  1  0
  3 25  1  0
  4 26  1  0
  6 27  1  6
  7 28  1  0
  7 29  1  0
  8 30  1  0
  8 31  1  0
  9 32  1  0
 10 33  1  0
 10 34  1  0
 11 35  1  1
 12 36  1  0
 12 37  1  0
 15 38  1  0
 16 39  1  0
 19 40  1  0
 21 41  1  0
 21 42  1  0
 23 43  1  0
 24 44  1  0
M  END
>  <meeko>  (8) 
{"is_sidechain": [false], "free_energy": -9.415, "intermolecular_energy": -11.952, "internal_energy": -0.552}

$$$$
seed-2302
     RDKit          3D

 44 47  0  0  0  0  0  0  0  0999 V2000
  127.7390  130.2780  121.1480 F   0  0  0  0  0  0  0  0  0  0  0  0
  128.0680  129.4120  122.1160 C   0  0  0  0  0  0  0  0  0  0  0  0
  129.0760  129.7410  123.0130 C   0  0  0  0  0  0  0  0  0  0  0  0
  129.4240  128.8400  124.0220 C   0  0  0  0  0  0  0  0  0  0  0  0
  128.7610  127.6070  124.1370 C   0  0  0  0  0  0  0  0  0  0  0  0
  129.1250  126.5950  125.2180 C   0  0  2  0  0  0  0  0  0  0  0  0
  128.4470  126.9150  126.5680 C   0  0  0  0  0  0  0  0  0  0  0  0
  129.4410  127.4030  127.6170 C   0  0  0  0  0  0  0  0  0  0  0  0
  130.5030  126.4340  127.8720 N   0  0  0  0  0  0  0  0  0  0  0  0
  130.9770  125.7230  126.6830 C   0  0  0  0  0  0  0  0  0  0  0  0
  130.6630  126.4420  125.3620 C   0  0  1  0  0  0  0  0  0  0  0  0
  131.2910  125.6960  124.1700 C   0  0  0  0  0  0  0  0  0  0  0  0
  132.6900  125.9730  124.1050 O   0  0  0  0  0  0  0  0  0  0  0  0
  133.3780  125.4690  123.0350 C   0  0  0  0  0  0  0  0  0  0  0  0
  133.4340  126.3340  121.9230 C   0  0  0  0  0  0  0  0  0  0  0  0
  134.1020  125.9640  120.7510 C   0  0  0  0  0  0  0  0  0  0  0  0
  134.7020  124.7250  120.7260 C   0  0  0  0  0  0  0  0  0  0  0  0
  134.6500  123.8770  121.8070 C   0  0  0  0  0  0  0  0  0  0  0  0
  133.9960  124.2170  122.9760 C   0  0  0  0  0  0  0  0  0  0  0  0
  135.3020  122.7060  121.5770 O   0  0  0  0  0  0  0  0  0  0  0  0
  135.7710  122.9150  120.2290 C   0  0  0  0  0  0  0  0  0  0  0  0
  135.3930  124.1950  119.6830 O   0  0  0  0  0  0  0  0  0  0  0  0
  127.7470  127.2960  123.2140 C   0  0  0  0  0  0  0  0  0  0  0  0
  127.4010  128.1980  122.2060 C   0  0  0  0  0  0  0  0  0  0  0  0
  129.5975  130.7059  122.9293 H   0  0  0  0  0  0  0  0  0  0  0  0
  130.2235  129.0980  124.7321 H   0  0  0  0  0  0  0  0  0  0  0  0
  128.7303  125.6212  124.8926 H   0  0  0  0  0  0  0  0  0  0  0  0
  127.6909  127.6975  126.4068 H   0  0  0  0  0  0  0  0  0  0  0  0
  127.9924  125.9863  126.9433 H   0  0  0  0  0  0  0  0  0  0  0  0
  129.8956  128.3403  127.2636 H   0  0  0  0  0  0  0  0  0  0  0  0
  128.8899  127.5512  128.5574 H   0  0  0  0  0  0  0  0  0  0  0  0
  131.2810  126.8940  128.3460 H   0  0  0  0  0  0  0  0  0  0  0  0
  132.0677  125.6043  126.7621 H   0  0  0  0  0  0  0  0  0  0  0  0
  130.4485  124.7587  126.6554 H   0  0  0  0  0  0  0  0  0  0  0  0
  131.1089  127.4475  125.3702 H   0  0  0  0  0  0  0  0  0  0  0  0
  131.1391  124.6139  124.2961 H   0  0  0  0  0  0  0  0  0  0  0  0
  130.8118  126.0331  123.2390 H   0  0  0  0  0  0  0  0  0  0  0  0
  132.9437  127.3172  121.9780 H   0  0  0  0  0  0  0  0  0  0  0  0
  134.1463  126.6374  119.8823 H   0  0  0  0  0  0  0  0  0  0  0  0
  133.9630  123.5256  123.8309 H   0  0  0  0  0  0  0  0  0  0  0  0
  136.8688  122.8456  120.2271 H   0  0  0  0  0  0  0  0  0  0  0  0
  135.3044  122.1429  119.5995 H   0  0  0  0  0  0  0  0  0  0  0  0
  127.2211  126.3326  123.2867 H   0  0  0  0  0  0  0  0  0  0  0  0
  126.6056  127.9484  121.4884 H   0  0  0  0  0  0  0  0  0  0  0  0
  1  2  1  0
  2  3  1  0
  3  4  2  0
  4  5  1  0
  5  6  1  0
  6  7  1  0
  7  8  1  0
  8  9  1  0
  9 10  1  0
 10 11  1  0
 11 12  1  0
 12 13  1  0
 13 14  1  0
 14 15  1  0
 15 16  2  0
 16 17  1  0
 17 18  2  0
 18 19  1  0
 18 20  1  0
 20 21  1  0
 21 22  1  0
  5 23  2  0
 23 24  1  0
 24  2  2  0
 11  6  1  0
 19 14  2  0
 22 17  1  0
  3 25  1  0
  4 26  1  0
  6 27  1  6
  7 28  1  0
  7 29  1  0
  8 30  1  0
  8 31  1  0
  9 32  1  0
 10 33  1  0
 10 34  1  0
 11 35  1  1
 12 36  1  0
 12 37  1  0
 15 38  1  0
 16 39  1  0
 19 40  1  0
 21 41  1  0
 21 42  1  0
 23 43  1  0
 24 44  1  0
M  END
>  <meeko>  (9) 
{"is_sidechain": [false], "free_energy": -9.258, "intermolecular_energy": -11.587, "internal_energy": -0.724}

$$$$
seed-2302
     RDKit          3D

 44 47  0  0  0  0  0  0  0  0999 V2000
  135.8330  122.2270  127.6750 F   0  0  0  0  0  0  0  0  0  0  0  0
  135.5690  122.4910  126.3880 C   0  0  0  0  0  0  0  0  0  0  0  0
  135.6040  123.8040  125.9390 C   0  0  0  0  0  0  0  0  0  0  0  0
  135.3270  124.0830  124.5990 C   0  0  0  0  0  0  0  0  0  0  0  0
  135.0160  123.0470  123.7040 C   0  0  0  0  0  0  0  0  0  0  0  0
  134.6960  123.3180  122.2370 C   0  0  2  0  0  0  0  0  0  0  0  0
  135.9350  123.1510  121.3300 C   0  0  0  0  0  0  0  0  0  0  0  0
  136.4390  124.4830  120.7830 C   0  0  0  0  0  0  0  0  0  0  0  0
  135.4180  125.1920  120.0160 N   0  0  0  0  0  0  0  0  0  0  0  0
  134.0630  125.0850  120.5610 C   0  0  0  0  0  0  0  0  0  0  0  0
  134.0190  124.7020  122.0470 C   0  0  1  0  0  0  0  0  0  0  0  0
  132.5720  124.7210  122.5760 C   0  0  0  0  0  0  0  0  0  0  0  0
  132.2520  126.0220  123.0680 O   0  0  0  0  0  0  0  0  0  0  0  0
  131.5740  126.0930  124.2550 C   0  0  0  0  0  0  0  0  0  0  0  0
  132.0520  125.2140  125.2470 C   0  0  0  0  0  0  0  0  0  0  0  0
  131.4660  125.1660  126.5160 C   0  0  0  0  0  0  0  0  0  0  0  0
  130.4050  126.0100  126.7570 C   0  0  0  0  0  0  0  0  0  0  0  0
  129.9340  126.8690  125.7920 C   0  0  0  0  0  0  0  0  0  0  0  0
  130.4940  126.9350  124.5310 C   0  0  0  0  0  0  0  0  0  0  0  0
  128.8830  127.6120  126.2300 O   0  0  0  0  0  0  0  0  0  0  0  0
  128.7480  127.1240  127.5820 C   0  0  0  0  0  0  0  0  0  0  0  0
  129.7120  126.1060  127.9220 O   0  0  0  0  0  0  0  0  0  0  0  0
  134.9840  121.7260  124.1840 C   0  0  0  0  0  0  0  0  0  0  0  0
  135.2600  121.4490  125.5240 C   0  0  0  0  0  0  0  0  0  0  0  0
  135.8486  124.6201  126.6348 H   0  0  0  0  0  0  0  0  0  0  0  0
  135.3527  125.1231  124.2418 H   0  0  0  0  0  0  0  0  0  0  0  0
  133.9704  122.5546  121.9196 H   0  0  0  0  0  0  0  0  0  0  0  0
  136.7401  122.6818  121.9146 H   0  0  0  0  0  0  0  0  0  0  0  0
  135.6420  122.5260  120.4736 H   0  0  0  0  0  0  0  0  0  0  0  0
  136.7503  125.1163  121.6268 H   0  0  0  0  0  0  0  0  0  0  0  0
  137.2800  124.2711  120.1064 H   0  0  0  0  0  0  0  0  0  0  0  0
  135.6850  126.1720  119.9140 H   0  0  0  0  0  0  0  0  0  0  0  0
  133.5627  126.0570  120.4388 H   0  0  0  0  0  0  0  0  0  0  0  0
  133.5591  124.2785  120.0082 H   0  0  0  0  0  0  0  0  0  0  0  0
  134.5772  125.4430  122.6380 H   0  0  0  0  0  0  0  0  0  0  0  0
  131.8819  124.4596  121.7603 H   0  0  0  0  0  0  0  0  0  0  0  0
  132.4753  123.9908  123.3930 H   0  0  0  0  0  0  0  0  0  0  0  0
  132.9016  124.5534  125.0192 H   0  0  0  0  0  0  0  0  0  0  0  0
  131.8383  124.4805  127.2916 H   0  0  0  0  0  0  0  0  0  0  0  0
  130.1030  127.6267  123.7703 H   0  0  0  0  0  0  0  0  0  0  0  0
  128.8762  127.9704  128.2728 H   0  0  0  0  0  0  0  0  0  0  0  0
  127.7506  126.6676  127.6647 H   0  0  0  0  0  0  0  0  0  0  0  0
  134.7391  120.9026  123.4969 H   0  0  0  0  0  0  0  0  0  0  0  0
  135.2329  120.4130  125.8927 H   0  0  0  0  0  0  0  0  0  0  0  0
  1  2  1  0
  2  3  1  0
  3  4  2  0
  4  5  1  0
  5  6  1  0
  6  7  1  0
  7  8  1  0
  8  9  1  0
  9 10  1  0
 10 11  1  0
 11 12  1  0
 12 13  1  0
 13 14  1  0
 14 15  1  0
 15 16  2  0
 16 17  1  0
 17 18  2  0
 18 19  1  0
 18 20  1  0
 20 21  1  0
 21 22  1  0
  5 23  2  0
 23 24  1  0
 24  2  2  0
 11  6  1  0
 19 14  2  0
 22 17  1  0
  3 25  1  0
  4 26  1  0
  6 27  1  6
  7 28  1  0
  7 29  1  0
  8 30  1  0
  8 31  1  0
  9 32  1  0
 10 33  1  0
 10 34  1  0
 11 35  1  1
 12 36  1  0
 12 37  1  0
 15 38  1  0
 16 39  1  0
 19 40  1  0
 21 41  1  0
 21 42  1  0
 23 43  1  0
 24 44  1  0
M  END
>  <meeko>  (10) 
{"is_sidechain": [false], "free_energy": -9.207, "intermolecular_energy": -11.201, "internal_energy": -1.046}

$$$$
seed-2302
     RDKit          3D

 44 47  0  0  0  0  0  0  0  0999 V2000
  134.2240  125.6120  119.3640 F   0  0  0  0  0  0  0  0  0  0  0  0
  134.3130  125.1800  120.6290 C   0  0  0  0  0  0  0  0  0  0  0  0
  133.7950  125.9610  121.6550 C   0  0  0  0  0  0  0  0  0  0  0  0
  133.8890  125.5150  122.9750 C   0  0  0  0  0  0  0  0  0  0  0  0
  134.4980  124.2850  123.2720 C   0  0  0  0  0  0  0  0  0  0  0  0
  134.6280  123.7750  124.7040 C   0  0  2  0  0  0  0  0  0  0  0  0
  136.1020  123.5840  125.1220 C   0  0  0  0  0  0  0  0  0  0  0  0
  136.4810  122.1130  125.2640 C   0  0  0  0  0  0  0  0  0  0  0  0
  135.6480  121.4150  126.2390 N   0  0  0  0  0  0  0  0  0  0  0  0
  134.2400  121.8150  126.2340 C   0  0  0  0  0  0  0  0  0  0  0  0
  133.7890  122.4890  124.9300 C   0  0  1  0  0  0  0  0  0  0  0  0
  132.2750  122.7750  124.9560 C   0  0  0  0  0  0  0  0  0  0  0  0
  131.8200  122.8640  126.3060 O   0  0  0  0  0  0  0  0  0  0  0  0
  131.2020  124.0250  126.6830 C   0  0  0  0  0  0  0  0  0  0  0  0
  129.9400  123.8390  127.2840 C   0  0  0  0  0  0  0  0  0  0  0  0
  129.1810  124.9280  127.7250 C   0  0  0  0  0  0  0  0  0  0  0  0
  129.7140  126.1860  127.5500 C   0  0  0  0  0  0  0  0  0  0  0  0
  130.9440  126.3720  126.9640 C   0  0  0  0  0  0  0  0  0  0  0  0
  131.7140  125.3140  126.5190 C   0  0  0  0  0  0  0  0  0  0  0  0
  131.2850  127.6860  126.8850 O   0  0  0  0  0  0  0  0  0  0  0  0
  130.1290  128.3050  127.4890 C   0  0  0  0  0  0  0  0  0  0  0  0
  129.1290  127.3570  127.9130 O   0  0  0  0  0  0  0  0  0  0  0  0
  135.0170  123.5150  122.2160 C   0  0  0  0  0  0  0  0  0  0  0  0
  134.9240  123.9630  120.8970 C   0  0  0  0  0  0  0  0  0  0  0  0
  133.3141  126.9241  121.4289 H   0  0  0  0  0  0  0  0  0  0  0  0
  133.4824  126.1327  123.7893 H   0  0  0  0  0  0  0  0  0  0  0  0
  134.2138  124.5533  125.3618 H   0  0  0  0  0  0  0  0  0  0  0  0
  136.7478  124.0430  124.3589 H   0  0  0  0  0  0  0  0  0  0  0  0
  136.2363  124.0610  126.1041 H   0  0  0  0  0  0  0  0  0  0  0  0
  136.3663  121.6227  124.2860 H   0  0  0  0  0  0  0  0  0  0  0  0
  137.5214  122.0675  125.6182 H   0  0  0  0  0  0  0  0  0  0  0  0
  135.7330  120.4070  126.1020 H   0  0  0  0  0  0  0  0  0  0  0  0
  133.6243  120.9170  126.3906 H   0  0  0  0  0  0  0  0  0  0  0  0
  134.1162  122.5573  127.0363 H   0  0  0  0  0  0  0  0  0  0  0  0
  133.9636  121.8113  124.0813 H   0  0  0  0  0  0  0  0  0  0  0  0
  132.0746  123.7257  124.4402 H   0  0  0  0  0  0  0  0  0  0  0  0
  131.7433  121.9569  124.4481 H   0  0  0  0  0  0  0  0  0  0  0  0
  129.5456  122.8197  127.4082 H   0  0  0  0  0  0  0  0  0  0  0  0
  128.1961  124.7852  128.1936 H   0  0  0  0  0  0  0  0  0  0  0  0
  132.6958  125.4814  126.0520 H   0  0  0  0  0  0  0  0  0  0  0  0
  130.4596  128.8794  128.3669 H   0  0  0  0  0  0  0  0  0  0  0  0
  129.6661  128.9455  126.7238 H   0  0  0  0  0  0  0  0  0  0  0  0
  135.5007  122.5508  122.4312 H   0  0  0  0  0  0  0  0  0  0  0  0
  135.3322  123.3556  120.0758 H   0  0  0  0  0  0  0  0  0  0  0  0
  1  2  1  0
  2  3  1  0
  3  4  2  0
  4  5  1  0
  5  6  1  0
  6  7  1  0
  7  8  1  0
  8  9  1  0
  9 10  1  0
 10 11  1  0
 11 12  1  0
 12 13  1  0
 13 14  1  0
 14 15  1  0
 15 16  2  0
 16 17  1  0
 17 18  2  0
 18 19  1  0
 18 20  1  0
 20 21  1  0
 21 22  1  0
  5 23  2  0
 23 24  1  0
 24  2  2  0
 11  6  1  0
 19 14  2  0
 22 17  1  0
  3 25  1  0
  4 26  1  0
  6 27  1  1
  7 28  1  0
  7 29  1  0
  8 30  1  0
  8 31  1  0
  9 32  1  0
 10 33  1  0
 10 34  1  0
 11 35  1  6
 12 36  1  0
 12 37  1  0
 15 38  1  0
 16 39  1  0
 19 40  1  0
 21 41  1  0
 21 42  1  0
 23 43  1  0
 24 44  1  0
M  END
>  <meeko>  (11) 
{"is_sidechain": [false], "free_energy": -9.152, "intermolecular_energy": -11.106, "internal_energy": -1.073}

$$$$
seed-2302
     RDKit          3D

 44 47  0  0  0  0  0  0  0  0999 V2000
  135.2240  123.6740  117.8240 F   0  0  0  0  0  0  0  0  0  0  0  0
  135.1570  124.0740  119.1020 C   0  0  0  0  0  0  0  0  0  0  0  0
  135.9510  123.4490  120.0550 C   0  0  0  0  0  0  0  0  0  0  0  0
  135.8820  123.8610  121.3870 C   0  0  0  0  0  0  0  0  0  0  0  0
  135.0200  124.9010  121.7690 C   0  0  0  0  0  0  0  0  0  0  0  0
  134.9110  125.3670  123.2180 C   0  0  2  0  0  0  0  0  0  0  0  0
  135.9640  126.4420  123.5650 C   0  0  0  0  0  0  0  0  0  0  0  0
  137.0430  125.9170  124.5060 C   0  0  0  0  0  0  0  0  0  0  0  0
  136.4910  125.4140  125.7610 N   0  0  0  0  0  0  0  0  0  0  0  0
  135.2210  124.6970  125.6230 C   0  0  0  0  0  0  0  0  0  0  0  0
  134.9550  124.1700  124.2060 C   0  0  1  0  0  0  0  0  0  0  0  0
  133.6620  123.3330  124.1660 C   0  0  0  0  0  0  0  0  0  0  0  0
  132.5470  124.1740  123.8730 O   0  0  0  0  0  0  0  0  0  0  0  0
  131.8460  124.6770  124.9360 C   0  0  0  0  0  0  0  0  0  0  0  0
  131.2460  123.6960  125.7500 C   0  0  0  0  0  0  0  0  0  0  0  0
  130.4960  124.0490  126.8760 C   0  0  0  0  0  0  0  0  0  0  0  0
  130.3680  125.3910  127.1580 C   0  0  0  0  0  0  0  0  0  0  0  0
  130.9510  126.3520  126.3670 C   0  0  0  0  0  0  0  0  0  0  0  0
  131.6960  126.0300  125.2490 C   0  0  0  0  0  0  0  0  0  0  0  0
  130.7030  127.6120  126.8170 O   0  0  0  0  0  0  0  0  0  0  0  0
  129.8980  127.3320  127.9820 C   0  0  0  0  0  0  0  0  0  0  0  0
  129.6820  125.9230  128.2040 O   0  0  0  0  0  0  0  0  0  0  0  0
  134.2250  125.5160  120.7860 C   0  0  0  0  0  0  0  0  0  0  0  0
  134.2940  125.1020  119.4540 C   0  0  0  0  0  0  0  0  0  0  0  0
  136.6299  122.6346  119.7620 H   0  0  0  0  0  0  0  0  0  0  0  0
  136.5085  123.3664  122.1438 H   0  0  0  0  0  0  0  0  0  0  0  0
  133.9269  125.8456  123.3295 H   0  0  0  0  0  0  0  0  0  0  0  0
  136.4419  126.7817  122.6343 H   0  0  0  0  0  0  0  0  0  0  0  0
  135.4455  127.2664  124.0763 H   0  0  0  0  0  0  0  0  0  0  0  0
  137.5819  125.0997  124.0044 H   0  0  0  0  0  0  0  0  0  0  0  0
  137.7143  126.7545  124.7468 H   0  0  0  0  0  0  0  0  0  0  0  0
  137.1820  124.8270  126.2290 H   0  0  0  0  0  0  0  0  0  0  0  0
  135.2292  123.8418  126.3147 H   0  0  0  0  0  0  0  0  0  0  0  0
  134.4214  125.4171  125.8512 H   0  0  0  0  0  0  0  0  0  0  0  0
  135.7709  123.4989  123.8995 H   0  0  0  0  0  0  0  0  0  0  0  0
  133.7512  122.5613  123.3872 H   0  0  0  0  0  0  0  0  0  0  0  0
  133.5086  122.8571  125.1458 H   0  0  0  0  0  0  0  0  0  0  0  0
  131.3698  122.6331  125.4951 H   0  0  0  0  0  0  0  0  0  0  0  0
  130.0263  123.2843  127.5121 H   0  0  0  0  0  0  0  0  0  0  0  0
  132.1553  126.8122  124.6267 H   0  0  0  0  0  0  0  0  0  0  0  0
  130.4042  127.7504  128.8644 H   0  0  0  0  0  0  0  0  0  0  0  0
  128.9118  127.7890  127.8128 H   0  0  0  0  0  0  0  0  0  0  0  0
  133.5423  126.3309  121.0687 H   0  0  0  0  0  0  0  0  0  0  0  0
  133.6690  125.5871  118.6898 H   0  0  0  0  0  0  0  0  0  0  0  0
  1  2  1  0
  2  3  1  0
  3  4  2  0
  4  5  1  0
  5  6  1  0
  6  7  1  0
  7  8  1  0
  8  9  1  0
  9 10  1  0
 10 11  1  0
 11 12  1  0
 12 13  1  0
 13 14  1  0
 14 15  1  0
 15 16  2  0
 16 17  1  0
 17 18  2  0
 18 19  1  0
 18 20  1  0
 20 21  1  0
 21 22  1  0
  5 23  2  0
 23 24  1  0
 24  2  2  0
 11  6  1  0
 19 14  2  0
 22 17  1  0
  3 25  1  0
  4 26  1  0
  6 27  1  6
  7 28  1  0
  7 29  1  0
  8 30  1  0
  8 31  1  0
  9 32  1  0
 10 33  1  0
 10 34  1  0
 11 35  1  6
 12 36  1  0
 12 37  1  0
 15 38  1  0
 16 39  1  0
 19 40  1  0
 21 41  1  0
 21 42  1  0
 23 43  1  0
 24 44  1  0
M  END
>  <meeko>  (12) 
{"is_sidechain": [false], "free_energy": -9.107, "intermolecular_energy": -11.219, "internal_energy": -0.904}

$$$$
seed-2302
     RDKit          3D

 44 47  0  0  0  0  0  0  0  0999 V2000
  135.2540  122.9770  117.6610 F   0  0  0  0  0  0  0  0  0  0  0  0
  135.1200  123.6740  118.7980 C   0  0  0  0  0  0  0  0  0  0  0  0
  134.3700  124.8430  118.7980 C   0  0  0  0  0  0  0  0  0  0  0  0
  134.2300  125.5730  119.9800 C   0  0  0  0  0  0  0  0  0  0  0  0
  134.8380  125.1330  121.1670 C   0  0  0  0  0  0  0  0  0  0  0  0
  134.7160  125.9130  122.4720 C   0  0  2  0  0  0  0  0  0  0  0  0
  136.0430  126.5990  122.8660 C   0  0  0  0  0  0  0  0  0  0  0  0
  136.6940  125.9490  124.0830 C   0  0  0  0  0  0  0  0  0  0  0  0
  135.8220  125.9610  125.2550 N   0  0  0  0  0  0  0  0  0  0  0  0
  134.4070  125.7240  124.9620 C   0  0  0  0  0  0  0  0  0  0  0  0
  134.1580  125.0260  123.6170 C   0  0  1  0  0  0  0  0  0  0  0  0
  132.6620  124.7080  123.4330 C   0  0  0  0  0  0  0  0  0  0  0  0
  131.9330  125.9150  123.2030 O   0  0  0  0  0  0  0  0  0  0  0  0
  131.0080  126.2750  124.1450 C   0  0  0  0  0  0  0  0  0  0  0  0
  130.1940  127.3630  123.7690 C   0  0  0  0  0  0  0  0  0  0  0  0
  129.1990  127.8510  124.6220 C   0  0  0  0  0  0  0  0  0  0  0  0
  129.0470  127.2300  125.8410 C   0  0  0  0  0  0  0  0  0  0  0  0
  129.8390  126.1700  126.2130 C   0  0  0  0  0  0  0  0  0  0  0  0
  130.8290  125.6680  125.3900 C   0  0  0  0  0  0  0  0  0  0  0  0
  129.5280  125.7020  127.4520 O   0  0  0  0  0  0  0  0  0  0  0  0
  128.4490  126.5890  127.8150 C   0  0  0  0  0  0  0  0  0  0  0  0
  128.1390  127.5610  126.7960 O   0  0  0  0  0  0  0  0  0  0  0  0
  135.5940  123.9480  121.1400 C   0  0  0  0  0  0  0  0  0  0  0  0
  135.7340  123.2200  119.9570 C   0  0  0  0  0  0  0  0  0  0  0  0
  133.8891  125.1917  117.8722 H   0  0  0  0  0  0  0  0  0  0  0  0
  133.6385  126.5005  119.9815 H   0  0  0  0  0  0  0  0  0  0  0  0
  133.9862  126.7177  122.2993 H   0  0  0  0  0  0  0  0  0  0  0  0
  136.7393  126.5357  122.0168 H   0  0  0  0  0  0  0  0  0  0  0  0
  135.8168  127.6440  123.1243 H   0  0  0  0  0  0  0  0  0  0  0  0
  136.9401  124.9056  123.8367 H   0  0  0  0  0  0  0  0  0  0  0  0
  137.5956  126.5287  124.3303 H   0  0  0  0  0  0  0  0  0  0  0  0
  136.1620  125.2870  125.9420 H   0  0  0  0  0  0  0  0  0  0  0  0
  133.9885  125.0948  125.7613 H   0  0  0  0  0  0  0  0  0  0  0  0
  133.9236  126.7104  124.9039 H   0  0  0  0  0  0  0  0  0  0  0  0
  134.6869  124.0617  123.5950 H   0  0  0  0  0  0  0  0  0  0  0  0
  132.5353  124.0356  122.5717 H   0  0  0  0  0  0  0  0  0  0  0  0
  132.2804  124.2223  124.3432 H   0  0  0  0  0  0  0  0  0  0  0  0
  130.3442  127.8363  122.7875 H   0  0  0  0  0  0  0  0  0  0  0  0
  128.5620  128.6989  124.3299 H   0  0  0  0  0  0  0  0  0  0  0  0
  131.4545  124.8196  125.7046 H   0  0  0  0  0  0  0  0  0  0  0  0
  127.5499  125.9846  128.0053 H   0  0  0  0  0  0  0  0  0  0  0  0
  128.7725  127.1456  128.7069 H   0  0  0  0  0  0  0  0  0  0  0  0
  136.0800  123.5909  122.0600 H   0  0  0  0  0  0  0  0  0  0  0  0
  136.3266  122.2934  119.9435 H   0  0  0  0  0  0  0  0  0  0  0  0
  1  2  1  0
  2  3  1  0
  3  4  2  0
  4  5  1  0
  5  6  1  0
  6  7  1  0
  7  8  1  0
  8  9  1  0
  9 10  1  0
 10 11  1  0
 11 12  1  0
 12 13  1  0
 13 14  1  0
 14 15  1  0
 15 16  2  0
 16 17  1  0
 17 18  2  0
 18 19  1  0
 18 20  1  0
 20 21  1  0
 21 22  1  0
  5 23  2  0
 23 24  1  0
 24  2  2  0
 11  6  1  0
 19 14  2  0
 22 17  1  0
  3 25  1  0
  4 26  1  0
  6 27  1  6
  7 28  1  0
  7 29  1  0
  8 30  1  0
  8 31  1  0
  9 32  1  0
 10 33  1  0
 10 34  1  0
 11 35  1  1
 12 36  1  0
 12 37  1  0
 15 38  1  0
 16 39  1  0
 19 40  1  0
 21 41  1  0
 21 42  1  0
 23 43  1  0
 24 44  1  0
M  END
>  <meeko>  (13) 
{"is_sidechain": [false], "free_energy": -9.073, "intermolecular_energy": -11.238, "internal_energy": -0.844}

$$$$
seed-2302
     RDKit          3D

 44 47  0  0  0  0  0  0  0  0999 V2000
  134.5470  125.4010  118.5300 F   0  0  0  0  0  0  0  0  0  0  0  0
  134.6370  125.0580  119.8230 C   0  0  0  0  0  0  0  0  0  0  0  0
  134.1630  125.9290  120.7950 C   0  0  0  0  0  0  0  0  0  0  0  0
  134.2580  125.5760  122.1430 C   0  0  0  0  0  0  0  0  0  0  0  0
  134.8250  124.3480  122.5210 C   0  0  0  0  0  0  0  0  0  0  0  0
  134.9560  123.9380  123.9840 C   0  0  2  0  0  0  0  0  0  0  0  0
  135.9880  122.8060  124.1810 C   0  0  0  0  0  0  0  0  0  0  0  0
  135.3330  121.4790  124.5520 C   0  0  0  0  0  0  0  0  0  0  0  0
  134.5370  121.5730  125.7730 N   0  0  0  0  0  0  0  0  0  0  0  0
  133.7960  122.8270  125.9220 C   0  0  0  0  0  0  0  0  0  0  0  0
  133.5770  123.5810  124.6020 C   0  0  1  0  0  0  0  0  0  0  0  0
  132.6960  124.8250  124.8210 C   0  0  0  0  0  0  0  0  0  0  0  0
  131.3240  124.4390  124.9120 O   0  0  0  0  0  0  0  0  0  0  0  0
  130.6170  124.8920  125.9930 C   0  0  0  0  0  0  0  0  0  0  0  0
  130.9020  126.2250  126.3520 C   0  0  0  0  0  0  0  0  0  0  0  0
  130.2610  126.8350  127.4350 C   0  0  0  0  0  0  0  0  0  0  0  0
  129.3440  126.0840  128.1360 C   0  0  0  0  0  0  0  0  0  0  0  0
  129.0630  124.7830  127.7900 C   0  0  0  0  0  0  0  0  0  0  0  0
  129.6820  124.1570  126.7250 C   0  0  0  0  0  0  0  0  0  0  0  0
  128.1320  124.2210  128.6060 O   0  0  0  0  0  0  0  0  0  0  0  0
  127.8590  125.3170  129.5040 C   0  0  0  0  0  0  0  0  0  0  0  0
  128.6250  126.5030  129.2100 O   0  0  0  0  0  0  0  0  0  0  0  0
  135.3000  123.4860  121.5170 C   0  0  0  0  0  0  0  0  0  0  0  0
  135.2060  123.8410  120.1710 C   0  0  0  0  0  0  0  0  0  0  0  0
  133.7154  126.8911  120.5051 H   0  0  0  0  0  0  0  0  0  0  0  0
  133.8856  126.2655  122.9150 H   0  0  0  0  0  0  0  0  0  0  0  0
  135.3410  124.8118  124.5301 H   0  0  0  0  0  0  0  0  0  0  0  0
  136.5494  122.6730  123.2444 H   0  0  0  0  0  0  0  0  0  0  0  0
  136.6498  123.0965  125.0103 H   0  0  0  0  0  0  0  0  0  0  0  0
  134.6774  121.1656  123.7262 H   0  0  0  0  0  0  0  0  0  0  0  0
  136.1349  120.7474  124.7300 H   0  0  0  0  0  0  0  0  0  0  0  0
  133.9030  120.7750  125.8310 H   0  0  0  0  0  0  0  0  0  0  0  0
  132.8122  122.5983  126.3576 H   0  0  0  0  0  0  0  0  0  0  0  0
  134.4015  123.4810  126.5667 H   0  0  0  0  0  0  0  0  0  0  0  0
  133.0373  122.9375  123.8916 H   0  0  0  0  0  0  0  0  0  0  0  0
  132.9967  125.3254  125.7533 H   0  0  0  0  0  0  0  0  0  0  0  0
  132.8232  125.5129  123.9721 H   0  0  0  0  0  0  0  0  0  0  0  0
  131.6413  126.7952  125.7703 H   0  0  0  0  0  0  0  0  0  0  0  0
  130.4810  127.8754  127.7162 H   0  0  0  0  0  0  0  0  0  0  0  0
  129.4463  123.1151  126.4626 H   0  0  0  0  0  0  0  0  0  0  0  0
  126.7899  125.5664  129.4348 H   0  0  0  0  0  0  0  0  0  0  0  0
  128.1448  124.9880  130.5140 H   0  0  0  0  0  0  0  0  0  0  0  0
  135.7504  122.5218  121.7955 H   0  0  0  0  0  0  0  0  0  0  0  0
  135.5802  123.1612  119.3913 H   0  0  0  0  0  0  0  0  0  0  0  0
  1  2  1  0
  2  3  1  0
  3  4  2  0
  4  5  1  0
  5  6  1  0
  6  7  1  0
  7  8  1  0
  8  9  1  0
  9 10  1  0
 10 11  1  0
 11 12  1  0
 12 13  1  0
 13 14  1  0
 14 15  1  0
 15 16  2  0
 16 17  1  0
 17 18  2  0
 18 19  1  0
 18 20  1  0
 20 21  1  0
 21 22  1  0
  5 23  2  0
 23 24  1  0
 24  2  2  0
 11  6  1  0
 19 14  2  0
 22 17  1  0
  3 25  1  0
  4 26  1  0
  6 27  1  1
  7 28  1  0
  7 29  1  0
  8 30  1  0
  8 31  1  0
  9 32  1  0
 10 33  1  0
 10 34  1  0
 11 35  1  6
 12 36  1  0
 12 37  1  0
 15 38  1  0
 16 39  1  0
 19 40  1  0
 21 41  1  0
 21 42  1  0
 23 43  1  0
 24 44  1  0
M  END
>  <meeko>  (14) 
{"is_sidechain": [false], "free_energy": -8.908, "intermolecular_energy": -11.456, "internal_energy": -0.422}

$$$$
seed-2302
     RDKit          3D

 44 47  0  0  0  0  0  0  0  0999 V2000
  135.3850  122.6770  117.7870 F   0  0  0  0  0  0  0  0  0  0  0  0
  135.1730  123.4920  118.8290 C   0  0  0  0  0  0  0  0  0  0  0  0
  135.6740  123.1490  120.0780 C   0  0  0  0  0  0  0  0  0  0  0  0
  135.4530  123.9960  121.1670 C   0  0  0  0  0  0  0  0  0  0  0  0
  134.7320  125.1900  121.0070 C   0  0  0  0  0  0  0  0  0  0  0  0
  134.4620  126.1300  122.1770 C   0  0  2  0  0  0  0  0  0  0  0  0
  135.6720  127.0380  122.4870 C   0  0  0  0  0  0  0  0  0  0  0  0
  136.3570  126.6680  123.7990 C   0  0  0  0  0  0  0  0  0  0  0  0
  135.4480  126.7350  124.9400 N   0  0  0  0  0  0  0  0  0  0  0  0
  134.0870  126.2700  124.6620 C   0  0  0  0  0  0  0  0  0  0  0  0
  133.9810  125.3550  123.4330 C   0  0  1  0  0  0  0  0  0  0  0  0
  132.5470  124.8160  123.2730 C   0  0  0  0  0  0  0  0  0  0  0  0
  132.5310  123.4050  123.4910 O   0  0  0  0  0  0  0  0  0  0  0  0
  133.3320  122.9160  124.4870 C   0  0  0  0  0  0  0  0  0  0  0  0
  132.7360  122.9240  125.7650 C   0  0  0  0  0  0  0  0  0  0  0  0
  133.4260  122.4560  126.8880 C   0  0  0  0  0  0  0  0  0  0  0  0
  134.7070  121.9890  126.6970 C   0  0  0  0  0  0  0  0  0  0  0  0
  135.2930  121.9800  125.4530 C   0  0  0  0  0  0  0  0  0  0  0  0
  134.6340  122.4370  124.3280 C   0  0  0  0  0  0  0  0  0  0  0  0
  136.5580  121.4810  125.4810 O   0  0  0  0  0  0  0  0  0  0  0  0
  136.7000  121.1760  126.8850 C   0  0  0  0  0  0  0  0  0  0  0  0
  135.5280  121.4960  127.6620 O   0  0  0  0  0  0  0  0  0  0  0  0
  134.2330  125.5130  119.7330 C   0  0  0  0  0  0  0  0  0  0  0  0
  134.4550  124.6660  118.6460 C   0  0  0  0  0  0  0  0  0  0  0  0
  136.2415  122.2159  120.2092 H   0  0  0  0  0  0  0  0  0  0  0  0
  135.8471  123.7252  122.1576 H   0  0  0  0  0  0  0  0  0  0  0  0
  133.6413  126.7955  121.8710 H   0  0  0  0  0  0  0  0  0  0  0  0
  136.4018  126.9451  121.6692 H   0  0  0  0  0  0  0  0  0  0  0  0
  135.3013  128.0693  122.5819 H   0  0  0  0  0  0  0  0  0  0  0  0
  136.7463  125.6424  123.7173 H   0  0  0  0  0  0  0  0  0  0  0  0
  137.1656  127.3936  123.9714 H   0  0  0  0  0  0  0  0  0  0  0  0
  135.8460  126.2210  125.7260 H   0  0  0  0  0  0  0  0  0  0  0  0
  133.7247  125.7146  125.5396 H   0  0  0  0  0  0  0  0  0  0  0  0
  133.4817  127.1633  124.4483 H   0  0  0  0  0  0  0  0  0  0  0  0
  134.6311  124.4777  123.5658 H   0  0  0  0  0  0  0  0  0  0  0  0
  131.8893  125.3058  124.0062 H   0  0  0  0  0  0  0  0  0  0  0  0
  132.1916  125.0291  122.2540 H   0  0  0  0  0  0  0  0  0  0  0  0
  131.7106  123.3049  125.8807 H   0  0  0  0  0  0  0  0  0  0  0  0
  132.9629  122.4609  127.8857 H   0  0  0  0  0  0  0  0  0  0  0  0
  135.1185  122.4240  123.3405 H   0  0  0  0  0  0  0  0  0  0  0  0
  136.9044  120.1002  126.9892 H   0  0  0  0  0  0  0  0  0  0  0  0
  137.5238  121.7949  127.2700 H   0  0  0  0  0  0  0  0  0  0  0  0
  133.6620  126.4424  119.5914 H   0  0  0  0  0  0  0  0  0  0  0  0
  134.0639  124.9268  117.6515 H   0  0  0  0  0  0  0  0  0  0  0  0
  1  2  1  0
  2  3  1  0
  3  4  2  0
  4  5  1  0
  5  6  1  0
  6  7  1  0
  7  8  1  0
  8  9  1  0
  9 10  1  0
 10 11  1  0
 11 12  1  0
 12 13  1  0
 13 14  1  0
 14 15  1  0
 15 16  2  0
 16 17  1  0
 17 18  2  0
 18 19  1  0
 18 20  1  0
 20 21  1  0
 21 22  1  0
  5 23  2  0
 23 24  1  0
 24  2  2  0
 11  6  1  0
 19 14  2  0
 22 17  1  0
  3 25  1  0
  4 26  1  0
  6 27  1  6
  7 28  1  0
  7 29  1  0
  8 30  1  0
  8 31  1  0
  9 32  1  0
 10 33  1  0
 10 34  1  0
 11 35  1  1
 12 36  1  0
 12 37  1  0
 15 38  1  0
 16 39  1  0
 19 40  1  0
 21 41  1  0
 21 42  1  0
 23 43  1  0
 24 44  1  0
M  END
>  <meeko>  (15) 
{"is_sidechain": [false], "free_energy": -8.893, "intermolecular_energy": -11.096, "internal_energy": -0.763}

$$$$
seed-2302
     RDKit          3D

 44 47  0  0  0  0  0  0  0  0999 V2000
  135.0670  121.6090  116.3440 F   0  0  0  0  0  0  0  0  0  0  0  0
  134.9640  122.2860  117.4960 C   0  0  0  0  0  0  0  0  0  0  0  0
  135.3240  121.6670  118.6860 C   0  0  0  0  0  0  0  0  0  0  0  0
  135.2160  122.3690  119.8890 C   0  0  0  0  0  0  0  0  0  0  0  0
  134.7480  123.6930  119.9030 C   0  0  0  0  0  0  0  0  0  0  0  0
  134.6050  124.4830  121.2000 C   0  0  2  0  0  0  0  0  0  0  0  0
  133.7420  125.7510  121.0170 C   0  0  0  0  0  0  0  0  0  0  0  0
  134.5660  127.0320  121.1000 C   0  0  0  0  0  0  0  0  0  0  0  0
  135.2760  127.1570  122.3700 N   0  0  0  0  0  0  0  0  0  0  0  0
  135.8150  125.8990  122.8920 C   0  0  0  0  0  0  0  0  0  0  0  0
  135.9880  124.8060  121.8270 C   0  0  1  0  0  0  0  0  0  0  0  0
  136.6640  123.5590  122.4260 C   0  0  0  0  0  0  0  0  0  0  0  0
  136.6850  123.6540  123.8500 O   0  0  0  0  0  0  0  0  0  0  0  0
  135.6550  123.0630  124.5310 C   0  0  0  0  0  0  0  0  0  0  0  0
  135.7830  121.6660  124.6740 C   0  0  0  0  0  0  0  0  0  0  0  0
  134.8130  120.9160  125.3460 C   0  0  0  0  0  0  0  0  0  0  0  0
  133.7310  121.5940  125.8620 C   0  0  0  0  0  0  0  0  0  0  0  0
  133.6010  122.9550  125.7250 C   0  0  0  0  0  0  0  0  0  0  0  0
  134.5440  123.7200  125.0650 C   0  0  0  0  0  0  0  0  0  0  0  0
  132.4640  123.4270  126.3030 O   0  0  0  0  0  0  0  0  0  0  0  0
  131.8940  122.2060  126.8210 C   0  0  0  0  0  0  0  0  0  0  0  0
  132.6940  121.0390  126.5440 O   0  0  0  0  0  0  0  0  0  0  0  0
  134.3870  124.2950  118.6850 C   0  0  0  0  0  0  0  0  0  0  0  0
  134.4950  123.5920  117.4840 C   0  0  0  0  0  0  0  0  0  0  0  0
  135.6919  120.6304  118.6813 H   0  0  0  0  0  0  0  0  0  0  0  0
  135.4998  121.8807  120.8329 H   0  0  0  0  0  0  0  0  0  0  0  0
  134.0682  123.8389  121.9120 H   0  0  0  0  0  0  0  0  0  0  0  0
  133.2548  125.7076  120.0318 H   0  0  0  0  0  0  0  0  0  0  0  0
  133.0029  125.7742  121.8314 H   0  0  0  0  0  0  0  0  0  0  0  0
  135.3020  127.0320  120.2825 H   0  0  0  0  0  0  0  0  0  0  0  0
  133.8727  127.8821  121.0188 H   0  0  0  0  0  0  0  0  0  0  0  0
  136.0170  127.8530  122.2820 H   0  0  0  0  0  0  0  0  0  0  0  0
  136.7981  126.1034  123.3412 H   0  0  0  0  0  0  0  0  0  0  0  0
  135.0868  125.5191  123.6237 H   0  0  0  0  0  0  0  0  0  0  0  0
  136.6526  125.1666  121.0281 H   0  0  0  0  0  0  0  0  0  0  0  0
  136.1021  122.6613  122.1287 H   0  0  0  0  0  0  0  0  0  0  0  0
  137.6965  123.4924  122.0524 H   0  0  0  0  0  0  0  0  0  0  0  0
  136.6612  121.1575  124.2495 H   0  0  0  0  0  0  0  0  0  0  0  0
  134.9104  119.8261  125.4582 H   0  0  0  0  0  0  0  0  0  0  0  0
  134.4238  124.8087  124.9637 H   0  0  0  0  0  0  0  0  0  0  0  0
  131.7881  122.3056  127.9114 H   0  0  0  0  0  0  0  0  0  0  0  0
  130.9248  122.0619  126.3210 H   0  0  0  0  0  0  0  0  0  0  0  0
  134.0157  125.3304  118.6784 H   0  0  0  0  0  0  0  0  0  0  0  0
  134.2104  124.0697  116.5349 H   0  0  0  0  0  0  0  0  0  0  0  0
  1  2  1  0
  2  3  1  0
  3  4  2  0
  4  5  1  0
  5  6  1  0
  6  7  1  0
  7  8  1  0
  8  9  1  0
  9 10  1  0
 10 11  1  0
 11 12  1  0
 12 13  1  0
 13 14  1  0
 14 15  1  0
 15 16  2  0
 16 17  1  0
 17 18  2  0
 18 19  1  0
 18 20  1  0
 20 21  1  0
 21 22  1  0
  5 23  2  0
 23 24  1  0
 24  2  2  0
 11  6  1  0
 19 14  2  0
 22 17  1  0
  3 25  1  0
  4 26  1  0
  6 27  1  1
  7 28  1  0
  7 29  1  0
  8 30  1  0
  8 31  1  0
  9 32  1  0
 10 33  1  0
 10 34  1  0
 11 35  1  6
 12 36  1  0
 12 37  1  0
 15 38  1  0
 16 39  1  0
 19 40  1  0
 21 41  1  0
 21 42  1  0
 23 43  1  0
 24 44  1  0
M  END
>  <meeko>  (16) 
{"is_sidechain": [false], "free_energy": -8.719, "intermolecular_energy": -11.402, "internal_energy": -0.242}

$$$$
seed-2302
     RDKit          3D

 44 47  0  0  0  0  0  0  0  0999 V2000
  133.1440  129.7090  129.1280 F   0  0  0  0  0  0  0  0  0  0  0  0
  132.2420  128.8850  128.5780 C   0  0  0  0  0  0  0  0  0  0  0  0
  132.3360  128.5720  127.2280 C   0  0  0  0  0  0  0  0  0  0  0  0
  131.3960  127.7160  126.6510 C   0  0  0  0  0  0  0  0  0  0  0  0
  130.3610  127.1660  127.4250 C   0  0  0  0  0  0  0  0  0  0  0  0
  129.3110  126.2380  126.8240 C   0  0  2  0  0  0  0  0  0  0  0  0
  127.8750  126.6520  127.2140 C   0  0  0  0  0  0  0  0  0  0  0  0
  127.2310  125.6710  128.1880 C   0  0  0  0  0  0  0  0  0  0  0  0
  127.1720  124.3130  127.6530 N   0  0  0  0  0  0  0  0  0  0  0  0
  128.3460  123.9150  126.8740 C   0  0  0  0  0  0  0  0  0  0  0  0
  129.6000  124.7520  127.1660 C   0  0  1  0  0  0  0  0  0  0  0  0
  130.8170  124.2020  126.3980 C   0  0  0  0  0  0  0  0  0  0  0  0
  130.7150  124.5440  125.0150 O   0  0  0  0  0  0  0  0  0  0  0  0
  131.8700  124.8950  124.3710 C   0  0  0  0  0  0  0  0  0  0  0  0
  133.0160  124.8910  125.1930 C   0  0  0  0  0  0  0  0  0  0  0  0
  134.2740  125.2260  124.6830 C   0  0  0  0  0  0  0  0  0  0  0  0
  134.3500  125.5590  123.3490 C   0  0  0  0  0  0  0  0  0  0  0  0
  133.2360  125.5650  122.5430 C   0  0  0  0  0  0  0  0  0  0  0  0
  131.9820  125.2390  123.0220 C   0  0  0  0  0  0  0  0  0  0  0  0
  133.5260  125.9230  121.2630 O   0  0  0  0  0  0  0  0  0  0  0  0
  134.9500  126.1390  121.3570 C   0  0  0  0  0  0  0  0  0  0  0  0
  135.4790  125.9100  122.6790 O   0  0  0  0  0  0  0  0  0  0  0  0
  130.2870  127.5010  128.7890 C   0  0  0  0  0  0  0  0  0  0  0  0
  131.2260  128.3580  129.3640 C   0  0  0  0  0  0  0  0  0  0  0  0
  133.1464  128.9961  126.6170 H   0  0  0  0  0  0  0  0  0  0  0  0
  131.4666  127.4702  125.5811 H   0  0  0  0  0  0  0  0  0  0  0  0
  129.3802  126.3399  125.7309 H   0  0  0  0  0  0  0  0  0  0  0  0
  127.9094  127.6457  127.6845 H   0  0  0  0  0  0  0  0  0  0  0  0
  127.2679  126.6610  126.2967 H   0  0  0  0  0  0  0  0  0  0  0  0
  127.8187  125.6592  129.1178 H   0  0  0  0  0  0  0  0  0  0  0  0
  126.1987  126.0058  128.3679 H   0  0  0  0  0  0  0  0  0  0  0  0
  127.0070  123.6520  128.4130 H   0  0  0  0  0  0  0  0  0  0  0  0
  128.5716  122.8626  127.1009 H   0  0  0  0  0  0  0  0  0  0  0  0
  128.0953  124.0746  125.8149 H   0  0  0  0  0  0  0  0  0  0  0  0
  129.8503  124.6868  128.2352 H   0  0  0  0  0  0  0  0  0  0  0  0
  131.7377  124.6369  126.8142 H   0  0  0  0  0  0  0  0  0  0  0  0
  130.8439  123.1070  126.4989 H   0  0  0  0  0  0  0  0  0  0  0  0
  132.9184  124.6194  126.2545 H   0  0  0  0  0  0  0  0  0  0  0  0
  135.1687  125.2236  125.3229 H   0  0  0  0  0  0  0  0  0  0  0  0
  131.1012  125.2500  122.3631 H   0  0  0  0  0  0  0  0  0  0  0  0
  135.4531  125.4556  120.6571 H   0  0  0  0  0  0  0  0  0  0  0  0
  135.1346  127.1955  121.1124 H   0  0  0  0  0  0  0  0  0  0  0  0
  129.4803  127.0829  129.4090 H   0  0  0  0  0  0  0  0  0  0  0  0
  131.1618  128.6142  130.4318 H   0  0  0  0  0  0  0  0  0  0  0  0
  1  2  1  0
  2  3  1  0
  3  4  2  0
  4  5  1  0
  5  6  1  0
  6  7  1  0
  7  8  1  0
  8  9  1  0
  9 10  1  0
 10 11  1  0
 11 12  1  0
 12 13  1  0
 13 14  1  0
 14 15  1  0
 15 16  2  0
 16 17  1  0
 17 18  2  0
 18 19  1  0
 18 20  1  0
 20 21  1  0
 21 22  1  0
  5 23  2  0
 23 24  1  0
 24  2  2  0
 11  6  1  0
 19 14  2  0
 22 17  1  0
  3 25  1  0
  4 26  1  0
  6 27  1  6
  7 28  1  0
  7 29  1  0
  8 30  1  0
  8 31  1  0
  9 32  1  0
 10 33  1  0
 10 34  1  0
 11 35  1  1
 12 36  1  0
 12 37  1  0
 15 38  1  0
 16 39  1  0
 19 40  1  0
 21 41  1  0
 21 42  1  0
 23 43  1  0
 24 44  1  0
M  END
>  <meeko>  (17) 
{"is_sidechain": [false], "free_energy": -8.653, "intermolecular_energy": -10.347, "internal_energy": -1.217}

$$$$
seed-2302
     RDKit          3D

 44 47  0  0  0  0  0  0  0  0999 V2000
  130.3650  127.4660  131.5620 F   0  0  0  0  0  0  0  0  0  0  0  0
  130.4180  127.5720  130.2270 C   0  0  0  0  0  0  0  0  0  0  0  0
  129.4970  126.8820  129.4500 C   0  0  0  0  0  0  0  0  0  0  0  0
  129.5510  126.9890  128.0590 C   0  0  0  0  0  0  0  0  0  0  0  0
  130.5260  127.7890  127.4420 C   0  0  0  0  0  0  0  0  0  0  0  0
  130.6220  127.9170  125.9250 C   0  0  2  0  0  0  0  0  0  0  0  0
  129.3770  128.6010  125.3190 C   0  0  0  0  0  0  0  0  0  0  0  0
  128.5100  127.6320  124.5220 C   0  0  0  0  0  0  0  0  0  0  0  0
  129.2430  126.9960  123.4310 N   0  0  0  0  0  0  0  0  0  0  0  0
  130.6310  126.6530  123.7490 C   0  0  0  0  0  0  0  0  0  0  0  0
  130.9170  126.5480  125.2540 C   0  0  1  0  0  0  0  0  0  0  0  0
  132.3600  126.0730  125.5060 C   0  0  0  0  0  0  0  0  0  0  0  0
  132.3530  124.7240  125.9740 O   0  0  0  0  0  0  0  0  0  0  0  0
  133.5140  124.0110  125.8450 C   0  0  0  0  0  0  0  0  0  0  0  0
  134.2050  124.2450  124.6380 C   0  0  0  0  0  0  0  0  0  0  0  0
  135.4100  123.5930  124.3570 C   0  0  0  0  0  0  0  0  0  0  0  0
  135.8930  122.7160  125.3010 C   0  0  0  0  0  0  0  0  0  0  0  0
  135.2220  122.4830  126.4790 C   0  0  0  0  0  0  0  0  0  0  0  0
  134.0310  123.1140  126.7820 C   0  0  0  0  0  0  0  0  0  0  0  0
  135.8660  121.5850  127.2720 O   0  0  0  0  0  0  0  0  0  0  0  0
  137.0180  121.2800  126.4580 C   0  0  0  0  0  0  0  0  0  0  0  0
  137.0410  121.9950  125.2060 O   0  0  0  0  0  0  0  0  0  0  0  0
  131.4490  128.4750  128.2510 C   0  0  0  0  0  0  0  0  0  0  0  0
  131.3940  128.3670  129.6410 C   0  0  0  0  0  0  0  0  0  0  0  0
  128.7296  126.2550  129.9274 H   0  0  0  0  0  0  0  0  0  0  0  0
  128.8236  126.4419  127.4413 H   0  0  0  0  0  0  0  0  0  0  0  0
  131.4771  128.5750  125.7110 H   0  0  0  0  0  0  0  0  0  0  0  0
  128.7740  129.0243  126.1358 H   0  0  0  0  0  0  0  0  0  0  0  0
  129.7270  129.3827  124.6287 H   0  0  0  0  0  0  0  0  0  0  0  0
  128.1387  126.8502  125.2009 H   0  0  0  0  0  0  0  0  0  0  0  0
  127.6838  128.2079  124.0795 H   0  0  0  0  0  0  0  0  0  0  0  0
  128.7360  126.1700  123.1120 H   0  0  0  0  0  0  0  0  0  0  0  0
  130.8635  125.6837  123.2839 H   0  0  0  0  0  0  0  0  0  0  0  0
  131.2584  127.4690  123.3610 H   0  0  0  0  0  0  0  0  0  0  0  0
  130.2571  125.7931  125.7063 H   0  0  0  0  0  0  0  0  0  0  0  0
  132.9320  126.1307  124.5682 H   0  0  0  0  0  0  0  0  0  0  0  0
  132.8258  126.7175  126.2660 H   0  0  0  0  0  0  0  0  0  0  0  0
  133.7892  124.9522  123.9052 H   0  0  0  0  0  0  0  0  0  0  0  0
  135.9513  123.7744  123.4167 H   0  0  0  0  0  0  0  0  0  0  0  0
  133.5077  122.9165  127.7292 H   0  0  0  0  0  0  0  0  0  0  0  0
  137.9241  121.5404  127.0248 H   0  0  0  0  0  0  0  0  0  0  0  0
  136.9710  120.2075  126.2182 H   0  0  0  0  0  0  0  0  0  0  0  0
  132.2219  129.1029  127.7836 H   0  0  0  0  0  0  0  0  0  0  0  0
  132.1184  128.9076  130.2679 H   0  0  0  0  0  0  0  0  0  0  0  0
  1  2  1  0
  2  3  1  0
  3  4  2  0
  4  5  1  0
  5  6  1  0
  6  7  1  0
  7  8  1  0
  8  9  1  0
  9 10  1  0
 10 11  1  0
 11 12  1  0
 12 13  1  0
 13 14  1  0
 14 15  1  0
 15 16  2  0
 16 17  1  0
 17 18  2  0
 18 19  1  0
 18 20  1  0
 20 21  1  0
 21 22  1  0
  5 23  2  0
 23 24  1  0
 24  2  2  0
 11  6  1  0
 19 14  2  0
 22 17  1  0
  3 25  1  0
  4 26  1  0
  6 27  1  1
  7 28  1  0
  7 29  1  0
  8 30  1  0
  8 31  1  0
  9 32  1  0
 10 33  1  0
 10 34  1  0
 11 35  1  1
 12 36  1  0
 12 37  1  0
 15 38  1  0
 16 39  1  0
 19 40  1  0
 21 41  1  0
 21 42  1  0
 23 43  1  0
 24 44  1  0
M  END
>  <meeko>  (18) 
{"is_sidechain": [false], "free_energy": -8.546, "intermolecular_energy": -10.655, "internal_energy": -0.777}

$$$$
seed-2302
     RDKit          3D

 44 47  0  0  0  0  0  0  0  0999 V2000
  134.8030  122.5470  115.8790 F   0  0  0  0  0  0  0  0  0  0  0  0
  134.7320  123.0180  117.1320 C   0  0  0  0  0  0  0  0  0  0  0  0
  135.2480  122.2620  118.1770 C   0  0  0  0  0  0  0  0  0  0  0  0
  135.1720  122.7500  119.4830 C   0  0  0  0  0  0  0  0  0  0  0  0
  134.5820  123.9960  119.7470 C   0  0  0  0  0  0  0  0  0  0  0  0
  134.4720  124.5510  121.1640 C   0  0  2  0  0  0  0  0  0  0  0  0
  133.7060  125.8920  121.2050 C   0  0  0  0  0  0  0  0  0  0  0  0
  134.6170  127.0740  121.5210 C   0  0  0  0  0  0  0  0  0  0  0  0
  135.3110  126.9170  122.7970 N   0  0  0  0  0  0  0  0  0  0  0  0
  135.7480  125.5510  123.0880 C   0  0  0  0  0  0  0  0  0  0  0  0
  135.8620  124.6550  121.8460 C   0  0  1  0  0  0  0  0  0  0  0  0
  136.4360  123.2740  122.2160 C   0  0  0  0  0  0  0  0  0  0  0  0
  135.4060  122.4520  122.7660 O   0  0  0  0  0  0  0  0  0  0  0  0
  135.3980  122.2850  124.1250 C   0  0  0  0  0  0  0  0  0  0  0  0
  134.2150  122.7240  124.7540 C   0  0  0  0  0  0  0  0  0  0  0  0
  134.0520  122.6200  126.1390 C   0  0  0  0  0  0  0  0  0  0  0  0
  135.0890  122.0740  126.8620 C   0  0  0  0  0  0  0  0  0  0  0  0
  136.2450  121.6460  126.2530 C   0  0  0  0  0  0  0  0  0  0  0  0
  136.4320  121.7370  124.8870 C   0  0  0  0  0  0  0  0  0  0  0  0
  137.1410  121.1410  127.1430 O   0  0  0  0  0  0  0  0  0  0  0  0
  136.4170  121.3010  128.3800 C   0  0  0  0  0  0  0  0  0  0  0  0
  135.1130  121.8930  128.2090 O   0  0  0  0  0  0  0  0  0  0  0  0
  134.0650  124.7400  118.6720 C   0  0  0  0  0  0  0  0  0  0  0  0
  134.1400  124.2510  117.3670 C   0  0  0  0  0  0  0  0  0  0  0  0
  135.7133  121.2855  117.9769 H   0  0  0  0  0  0  0  0  0  0  0  0
  135.5782  122.1526  120.3125 H   0  0  0  0  0  0  0  0  0  0  0  0
  133.8777  123.8317  121.7466 H   0  0  0  0  0  0  0  0  0  0  0  0
  133.2364  126.0604  120.2247 H   0  0  0  0  0  0  0  0  0  0  0  0
  132.9551  125.8244  122.0060 H   0  0  0  0  0  0  0  0  0  0  0  0
  135.3659  127.1666  120.7207 H   0  0  0  0  0  0  0  0  0  0  0  0
  133.9875  127.9734  121.5902 H   0  0  0  0  0  0  0  0  0  0  0  0
  136.1010  127.5610  122.8390 H   0  0  0  0  0  0  0  0  0  0  0  0
  136.7347  125.5989  123.5719 H   0  0  0  0  0  0  0  0  0  0  0  0
  134.9806  125.1020  123.7357 H   0  0  0  0  0  0  0  0  0  0  0  0
  136.5655  125.1024  121.1284 H   0  0  0  0  0  0  0  0  0  0  0  0
  136.8429  122.7943  121.3136 H   0  0  0  0  0  0  0  0  0  0  0  0
  137.2350  123.4013  122.9613 H   0  0  0  0  0  0  0  0  0  0  0  0
  133.4068  123.1555  124.1452 H   0  0  0  0  0  0  0  0  0  0  0  0
  133.1301  122.9615  126.6323 H   0  0  0  0  0  0  0  0  0  0  0  0
  137.3634  121.3897  124.4159 H   0  0  0  0  0  0  0  0  0  0  0  0
  136.2922  120.3103  128.8414 H   0  0  0  0  0  0  0  0  0  0  0  0
  137.0028  121.9840  129.0127 H   0  0  0  0  0  0  0  0  0  0  0  0
  133.5968  125.7172  118.8613 H   0  0  0  0  0  0  0  0  0  0  0  0
  133.7329  124.8385  116.5309 H   0  0  0  0  0  0  0  0  0  0  0  0
  1  2  1  0
  2  3  1  0
  3  4  2  0
  4  5  1  0
  5  6  1  0
  6  7  1  0
  7  8  1  0
  8  9  1  0
  9 10  1  0
 10 11  1  0
 11 12  1  0
 12 13  1  0
 13 14  1  0
 14 15  1  0
 15 16  2  0
 16 17  1  0
 17 18  2  0
 18 19  1  0
 18 20  1  0
 20 21  1  0
 21 22  1  0
  5 23  2  0
 23 24  1  0
 24  2  2  0
 11  6  1  0
 19 14  2  0
 22 17  1  0
  3 25  1  0
  4 26  1  0
  6 27  1  1
  7 28  1  0
  7 29  1  0
  8 30  1  0
  8 31  1  0
  9 32  1  0
 10 33  1  0
 10 34  1  0
 11 35  1  6
 12 36  1  0
 12 37  1  0
 15 38  1  0
 16 39  1  0
 19 40  1  0
 21 41  1  0
 21 42  1  0
 23 43  1  0
 24 44  1  0
M  END
>  <meeko>  (19) 
{"is_sidechain": [false], "free_energy": -8.479, "intermolecular_energy": -11.048, "internal_energy": -0.301}

$$$$
seed-2302
     RDKit          3D

 44 47  0  0  0  0  0  0  0  0999 V2000
  135.1240  124.2930  118.6340 F   0  0  0  0  0  0  0  0  0  0  0  0
  134.9520  124.4620  119.9530 C   0  0  0  0  0  0  0  0  0  0  0  0
  134.2430  125.5630  120.4140 C   0  0  0  0  0  0  0  0  0  0  0  0
  134.0640  125.7440  121.7870 C   0  0  0  0  0  0  0  0  0  0  0  0
  134.5930  124.8200  122.7030 C   0  0  0  0  0  0  0  0  0  0  0  0
  134.4280  124.9940  124.2090 C   0  0  2  0  0  0  0  0  0  0  0  0
  135.7760  125.2520  124.9170 C   0  0  0  0  0  0  0  0  0  0  0  0
  136.2230  124.0670  125.7680 C   0  0  0  0  0  0  0  0  0  0  0  0
  135.2430  123.7160  126.7920 N   0  0  0  0  0  0  0  0  0  0  0  0
  133.8470  123.8320  126.3640 C   0  0  0  0  0  0  0  0  0  0  0  0
  133.6590  123.8020  124.8400 C   0  0  1  0  0  0  0  0  0  0  0  0
  132.1630  123.8120  124.4720 C   0  0  0  0  0  0  0  0  0  0  0  0
  131.4150  124.4700  125.4940 O   0  0  0  0  0  0  0  0  0  0  0  0
  130.9440  125.7240  125.2150 C   0  0  0  0  0  0  0  0  0  0  0  0
  131.3650  126.7160  126.1240 C   0  0  0  0  0  0  0  0  0  0  0  0
  130.9690  128.0490  125.9760 C   0  0  0  0  0  0  0  0  0  0  0  0
  130.1530  128.3540  124.9090 C   0  0  0  0  0  0  0  0  0  0  0  0
  129.7390  127.3900  124.0210 C   0  0  0  0  0  0  0  0  0  0  0  0
  130.1150  126.0670  124.1450 C   0  0  0  0  0  0  0  0  0  0  0  0
  128.9400  127.8980  123.0440 O   0  0  0  0  0  0  0  0  0  0  0  0
  128.9010  129.2910  123.4190 C   0  0  0  0  0  0  0  0  0  0  0  0
  129.6690  129.5860  124.6030 O   0  0  0  0  0  0  0  0  0  0  0  0
  135.3100  123.7150  122.2100 C   0  0  0  0  0  0  0  0  0  0  0  0
  135.4880  123.5370  120.8380 C   0  0  0  0  0  0  0  0  0  0  0  0
  133.8244  126.2890  119.7014 H   0  0  0  0  0  0  0  0  0  0  0  0
  133.5044  126.6170  122.1540 H   0  0  0  0  0  0  0  0  0  0  0  0
  133.8159  125.8948  124.3636 H   0  0  0  0  0  0  0  0  0  0  0  0
  136.5437  125.4484  124.1541 H   0  0  0  0  0  0  0  0  0  0  0  0
  135.6430  126.1143  125.5868 H   0  0  0  0  0  0  0  0  0  0  0  0
  136.3745  123.1977  125.1113 H   0  0  0  0  0  0  0  0  0  0  0  0
  137.1541  124.3533  126.2790 H   0  0  0  0  0  0  0  0  0  0  0  0
  135.4320  122.7760  127.1410 H   0  0  0  0  0  0  0  0  0  0  0  0
  133.2806  122.9956  126.7994 H   0  0  0  0  0  0  0  0  0  0  0  0
  133.4869  124.8118  126.7110 H   0  0  0  0  0  0  0  0  0  0  0  0
  134.0744  122.8687  124.4320 H   0  0  0  0  0  0  0  0  0  0  0  0
  132.0254  124.3445  123.5193 H   0  0  0  0  0  0  0  0  0  0  0  0
  131.8076  122.7756  124.3739 H   0  0  0  0  0  0  0  0  0  0  0  0
  132.0168  126.4364  126.9649 H   0  0  0  0  0  0  0  0  0  0  0  0
  131.2965  128.8241  126.6844 H   0  0  0  0  0  0  0  0  0  0  0  0
  129.7730  125.3089  123.4251 H   0  0  0  0  0  0  0  0  0  0  0  0
  129.3010  129.8878  122.5860 H   0  0  0  0  0  0  0  0  0  0  0  0
  127.8526  129.5386  123.6414 H   0  0  0  0  0  0  0  0  0  0  0  0
  135.7347  122.9837  122.9135 H   0  0  0  0  0  0  0  0  0  0  0  0
  136.0492  122.6697  120.4602 H   0  0  0  0  0  0  0  0  0  0  0  0
  1  2  1  0
  2  3  1  0
  3  4  2  0
  4  5  1  0
  5  6  1  0
  6  7  1  0
  7  8  1  0
  8  9  1  0
  9 10  1  0
 10 11  1  0
 11 12  1  0
 12 13  1  0
 13 14  1  0
 14 15  1  0
 15 16  2  0
 16 17  1  0
 17 18  2  0
 18 19  1  0
 18 20  1  0
 20 21  1  0
 21 22  1  0
  5 23  2  0
 23 24  1  0
 24  2  2  0
 11  6  1  0
 19 14  2  0
 22 17  1  0
  3 25  1  0
  4 26  1  0
  6 27  1  6
  7 28  1  0
  7 29  1  0
  8 30  1  0
  8 31  1  0
  9 32  1  0
 10 33  1  0
 10 34  1  0
 11 35  1  6
 12 36  1  0
 12 37  1  0
 15 38  1  0
 16 39  1  0
 19 40  1  0
 21 41  1  0
 21 42  1  0
 23 43  1  0
 24 44  1  0
M  END
>  <meeko>  (20) 
{"is_sidechain": [false], "free_energy": -8.473, "intermolecular_energy": -10.208, "internal_energy": -1.133}

$$$$
